   Input file: ex10
  Output file: ex10.out
Database file: ../database/wateq4f.dat

------------------
Reading data base.
------------------

	SOLUTION_MASTER_SPECIES
	SOLUTION_SPECIES
	PHASES
	EXCHANGE_MASTER_SPECIES
	EXCHANGE_SPECIES
	SURFACE_MASTER_SPECIES
	SURFACE_SPECIES
	RATES
	END
------------------------------------
Reading input data for simulation 1.
------------------------------------

	DATABASE ../database/wateq4f.dat
	TITLE Example 10.--Transport with equilibrium_phases, 
	   exchange, and surface reactions
	SOLUTION 1 Brine
	        pH      5.713
	        pe      4.0     O2(g)   -0.7
	        temp    25.
	        units   mol/kgw
	        Ca      .4655
	        Mg      .1609
	        Na      5.402
	        Cl      6.642           charge
	        C       .00396
	        S       .004725
	        As      .05 umol/kgw
	EQUILIBRIUM_PHASES 1
	        Dolomite        0.0     1.6
	        Calcite         0.0     0.1
	EXCHANGE 1
	        equilibrate with solution 1
	        X       1.0
	SURFACE 1
	        equilibrate solution 1
	        Hfo_w           0.07    600.    30.
	END
-----
TITLE
-----

 Example 10.--Transport with equilibrium_phases, 
   exchange, and surface reactions

-------------------------------------------
Beginning of initial solution calculations.
-------------------------------------------

Initial solution 1.	Brine

-----------------------------Solution composition------------------------------

	Elements           Molality       Moles

	As               5.000e-008  5.000e-008
	C                3.960e-003  3.960e-003
	Ca               4.655e-001  4.655e-001
	Cl               6.642e+000  6.642e+000  Charge balance
	Mg               1.609e-001  1.609e-001
	Na               5.402e+000  5.402e+000
	S                4.725e-003  4.725e-003

----------------------------Description of solution----------------------------

                                       pH  =   5.713    
                                       pe  =  14.962      Equilibrium with O2(g)
                        Activity of water  =   0.785
                           Ionic strength  =  7.269e+000
                       Mass of water (kg)  =  1.000e+000
                 Total alkalinity (eq/kg)  =  3.333e-003
                       Total CO2 (mol/kg)  =  3.960e-003
                      Temperature (deg C)  =  25.000
                  Electrical balance (eq)  = -2.986e-010
 Percent error, 100*(Cat-|An|)/(Cat+|An|)  =  -0.00
                               Iterations  =  10
                                  Total H  = 1.110158e+002
                                  Total O  = 5.553646e+001

----------------------------Distribution of species----------------------------

                                                   Log       Log         Log 
   Species                 Molality    Activity  Molality  Activity     Gamma

   H+                    2.755e-006  1.936e-006    -5.560    -5.713    -0.153
   OH-                   7.396e-010  4.056e-009    -9.131    -8.392     0.739
   H2O                   5.551e+001  7.846e-001     1.744    -0.105     0.000
As(3)           2.537e-033
   H3AsO3                2.536e-033  1.352e-032   -32.596   -31.869     0.727
   H2AsO3-               9.013e-037  4.943e-036   -36.045   -35.306     0.739
   H4AsO3+               2.365e-039  1.297e-038   -38.626   -37.887     0.739
   HAsO3-2               0.000e+000  0.000e+000   -47.249   -44.293     2.956
   AsO3-3                0.000e+000  0.000e+000   -60.932   -54.280     6.652
   AsS(OH)(HS)-          0.000e+000  0.000e+000  -302.484  -301.745     0.739
   As3S4(HS)2-           0.000e+000  0.000e+000  -898.883  -898.144     0.739
As(5)           5.000e-008
   H2AsO4-               4.997e-008  2.740e-007    -7.301    -6.562     0.739
   H3AsO4                1.986e-011  1.059e-010   -10.702    -9.975     0.727
   HAsO4-2               1.082e-011  9.791e-009   -10.966    -8.009     2.956
   AsO4-3                2.522e-021  1.132e-014   -20.598   -13.946     6.652
C(-4)           0.000e+000
   CH4                   0.000e+000  0.000e+000  -143.997  -143.270     0.727
C(4)            3.960e-003
   HCO3-                 1.045e-003  6.049e-004    -2.981    -3.218    -0.238
   CaHCO3+               1.002e-003  5.494e-003    -2.999    -2.260     0.739
   MgHCO3+               6.754e-004  3.704e-003    -3.170    -2.431     0.739
   CO2                   6.296e-004  3.357e-003    -3.201    -2.474     0.727
   NaHCO3                6.026e-004  3.213e-003    -3.220    -2.493     0.727
   CaCO3                 3.278e-006  1.748e-005    -5.484    -4.758     0.727
   MgCO3                 1.372e-006  7.316e-006    -5.863    -5.136     0.727
   NaCO3-                4.698e-007  2.577e-006    -6.328    -5.589     0.739
   CO3-2                 1.307e-007  1.465e-008    -6.884    -7.834    -0.950
Ca              4.655e-001
   Ca+2                  4.629e-001  7.121e-001    -0.335    -0.147     0.187
   CaSO4                 1.606e-003  8.565e-003    -2.794    -2.067     0.727
   CaHCO3+               1.002e-003  5.494e-003    -2.999    -2.260     0.739
   CaCO3                 3.278e-006  1.748e-005    -5.484    -4.758     0.727
   CaHSO4+               1.772e-008  9.716e-008    -7.752    -7.012     0.739
   CaOH+                 8.731e-009  4.788e-008    -8.059    -7.320     0.739
Cl              6.642e+000
   Cl-                   6.642e+000  3.947e+000     0.822     0.596    -0.226
H(0)            0.000e+000
   H2                    0.000e+000  0.000e+000   -45.226   -44.499     0.727
Mg              1.609e-001
   Mg+2                  1.588e-001  5.233e-001    -0.799    -0.281     0.518
   MgSO4                 1.387e-003  7.395e-003    -2.858    -2.131     0.727
   MgHCO3+               6.754e-004  3.704e-003    -3.170    -2.431     0.739
   MgCO3                 1.372e-006  7.316e-006    -5.863    -5.136     0.727
   MgOH+                 1.404e-007  7.698e-007    -6.853    -6.114     0.739
Na              5.402e+000
   Na+                   5.401e+000  9.445e+000     0.732     0.975     0.243
   NaHCO3                6.026e-004  3.213e-003    -3.220    -2.493     0.727
   NaSO4-                5.203e-004  2.854e-003    -3.284    -2.545     0.739
   NaCO3-                4.698e-007  2.577e-006    -6.328    -5.589     0.739
O(0)            9.589e-005
   O2                    4.795e-005  2.556e-004    -4.319    -3.592     0.727
S(-2)           0.000e+000
   H2S                   0.000e+000  0.000e+000  -140.704  -139.977     0.727
   HS-                   0.000e+000  0.000e+000  -141.945  -141.206     0.739
   S5-2                  0.000e+000  0.000e+000  -144.615  -145.088    -0.473
   S4-2                  0.000e+000  0.000e+000  -144.764  -145.322    -0.558
   S6-2                  0.000e+000  0.000e+000  -144.964  -145.374    -0.410
   S3-2                  0.000e+000  0.000e+000  -148.095  -148.775    -0.680
   S2-2                  0.000e+000  0.000e+000  -149.207  -150.021    -0.813
   S-2                   0.000e+000  0.000e+000  -151.367  -148.411     2.956
   AsS(OH)(HS)-          0.000e+000  0.000e+000  -302.484  -301.745     0.739
   As3S4(HS)2-           0.000e+000  0.000e+000  -898.883  -898.144     0.739
S(6)            4.725e-003
   CaSO4                 1.606e-003  8.565e-003    -2.794    -2.067     0.727
   MgSO4                 1.387e-003  7.395e-003    -2.858    -2.131     0.727
   SO4-2                 1.211e-003  6.028e-005    -2.917    -4.220    -1.303
   NaSO4-                5.203e-004  2.854e-003    -3.284    -2.545     0.739
   CaHSO4+               1.772e-008  9.716e-008    -7.752    -7.012     0.739
   HSO4-                 2.069e-009  1.135e-008    -8.684    -7.945     0.739

------------------------------Saturation indices-------------------------------

	Phase               SI log IAP  log KT

	Anhydrite        -0.01   -4.37   -4.36  CaSO4
	Aragonite         0.35   -7.98   -8.34  CaCO3
	Arsenolite      -62.04  -63.42   -1.38  As2O3
	Artinite         -7.10    2.50    9.60  MgCO3:Mg(OH)2:3H2O
	As2O5(cr)       -27.86  -19.63    8.23  As2O5
	As2S3(am)      -458.96 -503.86  -44.90  As2S3
	As_native       -81.04  -93.58  -12.53  As
	Brucite          -5.91   10.93   16.84  Mg(OH)2
	Ca3(AsO4)2:4w    -9.85  -28.76  -18.91  Ca3(AsO4)2:4H2O
	Calcite           0.50   -7.98   -8.48  CaCO3
	CH4(g)         -140.41 -143.27   -2.86  CH4
	Claudetite      -62.08  -63.42   -1.34  As2O3
	CO2(g)           -1.01   -2.47   -1.47  CO2
	Dolomite          0.99  -16.10  -17.09  CaMg(CO3)2
	Dolomite(d)       0.44  -16.10  -16.54  CaMg(CO3)2
	Epsomite         -3.10   -5.24   -2.14  MgSO4:7H2O
	Gypsum            0.00   -4.58   -4.58  CaSO4:2H2O
	H2(g)           -41.35  -44.50   -3.15  H2
	H2O(g)           -1.62   -0.11    1.51  H2O
	H2S(g)         -138.98 -139.98   -1.00  H2S
	Halite           -0.01    1.57    1.58  NaCl
	Huntite          -2.36  -32.33  -29.97  CaMg3(CO3)4
	Hydromagnesite  -13.19  -21.95   -8.76  Mg5(CO3)4(OH)2:4H2O
	Magnesite        -0.09   -8.12   -8.03  MgCO3
	Mirabilite       -2.21   -3.32   -1.11  Na2SO4:10H2O
	Nahcolite        -1.70   -2.24   -0.55  NaHCO3
	Natron           -5.63   -6.94   -1.31  Na2CO3:10H2O
	Nesquehonite     -2.81   -8.43   -5.62  MgCO3:3H2O
	O2(g)            -0.70   -3.59   -2.89  O2
	Orpiment       -457.56 -503.86  -46.30  As2S3
	Portlandite     -11.73   11.07   22.80  Ca(OH)2
	Realgar        -179.20 -199.15  -19.94  AsS
	Sulfur         -103.46 -118.49  -15.03  S
	Thenardite       -2.09   -2.27   -0.18  Na2SO4
	Thermonatrite    -6.11   -5.99    0.13  Na2CO3:H2O
	Trona            -7.54   -8.34   -0.80  NaHCO3:Na2CO3:2H2O

-------------------------------------------------------
Beginning of initial exchange-composition calculations.
-------------------------------------------------------

Exchange 1.	

X               1.000e+000 mol

	                               Equiv-    Equivalent      Log 
	Species             Moles      alents      Fraction     Gamma

	NaX              9.355e-001  9.355e-001  9.355e-001     0.000
	CaX2             2.204e-002  4.407e-002  4.407e-002     0.000
	MgX2             1.022e-002  2.044e-002  2.044e-002     0.000
	HX               1.918e-006  1.918e-006  1.918e-006     0.000

------------------------------------------------------
Beginning of initial surface-composition calculations.
------------------------------------------------------

Surface 1.	

Hfo           
	 5.746e-002  Surface charge, eq
	 3.081e-001  sigma, C/m**2
	 4.431e-002  psi, V
	-1.725e+000  -F*psi/RT
	 1.782e-001  exp(-F*psi/RT)
	 6.000e+002  specific area, m**2/g
	 1.800e+004  m**2 for  3.000e+001 g


Hfo_w         
	 7.000e-002  moles
	                                   Mole                     Log
	Species               Moles    Fraction    Molality    Molality

	Hfo_wOH2+        5.069e-002       0.724  5.069e-002      -1.295
	Hfo_wOMg+        9.114e-003       0.130  9.114e-003      -2.040
	Hfo_wOH          7.532e-003       0.108  7.532e-003      -2.123
	Hfo_wHAsO4-      7.398e-004       0.011  7.398e-004      -3.131
	Hfo_wOCa+        6.974e-004       0.010  6.974e-004      -3.157
	Hfo_wOHAsO4-3    5.724e-004       0.008  5.724e-004      -3.242
	Hfo_wSO4-        3.788e-004       0.005  3.788e-004      -3.422
	Hfo_wH2AsO4      1.611e-004       0.002  1.611e-004      -3.793
	Hfo_wOHSO4-2     8.812e-005       0.001  8.812e-005      -4.055
	Hfo_wO-          2.564e-005       0.000  2.564e-005      -4.591

-----------------------------------------
Beginning of batch-reaction calculations.
-----------------------------------------

Reaction step 1.

Using solution 1.	Brine
Using exchange 1.	Exchange assemblage after simulation 1.
Using surface 1.	Surface assemblage after simulation 1.
Using pure phase assemblage 1.	

-------------------------------Phase assemblage--------------------------------

                                                      Moles in assemblage
Phase                  SI log IAP  log KT      Initial       Final       Delta

Calcite              0.00   -8.48   -8.48   1.000e-001  1.013e-001  1.278e-003
Dolomite             0.00  -17.09  -17.09   1.600e+000  1.601e+000  6.444e-004

------------------------------Surface composition------------------------------

Hfo           
	 5.790e-002  Surface charge, eq
	 3.104e-001  sigma, C/m**2
	 4.458e-002  psi, V
	-1.735e+000  -F*psi/RT
	 1.764e-001  exp(-F*psi/RT)
	 6.000e+002  specific area, m**2/g
	 1.800e+004  m**2 for  3.000e+001 g


Hfo_w         
	 7.000e-002  moles
	                                   Mole                     Log
	Species               Moles    Fraction    Molality    Molality

	Hfo_wOH2+        5.225e-002       0.746  5.225e-002      -1.282
	Hfo_wOMg+        7.963e-003       0.114  7.963e-003      -2.099
	Hfo_wOH          7.206e-003       0.103  7.206e-003      -2.142
	Hfo_wHAsO4-      7.749e-004       0.011  7.749e-004      -3.111
	Hfo_wOCa+        6.045e-004       0.009  6.045e-004      -3.219
	Hfo_wOHAsO4-3    5.165e-004       0.007  5.165e-004      -3.287
	Hfo_wSO4-        3.972e-004       0.006  3.972e-004      -3.401
	Hfo_wH2AsO4      1.818e-004       0.003  1.818e-004      -3.740
	Hfo_wOHSO4-2     8.576e-005       0.001  8.576e-005      -4.067
	Hfo_wO-          2.276e-005       0.000  2.276e-005      -4.643
	Hfo_wH2AsO3      3.766e-029       0.000  3.766e-029     -28.424

-----------------------------Exchange composition------------------------------

X               1.000e+000 mol

	                               Equiv-    Equivalent      Log 
	Species             Moles      alents      Fraction     Gamma

	NaX              9.355e-001  9.355e-001  9.355e-001     0.000
	CaX2             2.198e-002  4.396e-002  4.396e-002     0.000
	MgX2             1.027e-002  2.055e-002  2.055e-002     0.000
	HX               2.089e-006  2.089e-006  2.089e-006     0.000

-----------------------------Solution composition------------------------------

	Elements           Molality       Moles

	As               5.419e-008  5.419e-008
	C                1.393e-003  1.393e-003
	Ca               4.637e-001  4.637e-001
	Cl               6.642e+000  6.642e+000
	Mg               1.614e-001  1.614e-001
	Na               5.402e+000  5.402e+000
	S                4.709e-003  4.709e-003

----------------------------Description of solution----------------------------

                                       pH  =   5.676      Charge balance
                                       pe  =  14.999      Adjusted to redox equilibrium
                        Activity of water  =   0.785
                           Ionic strength  =  7.268e+000
                       Mass of water (kg)  =  1.000e+000
                 Total alkalinity (eq/kg)  =  1.154e-003
                       Total CO2 (mol/kg)  =  1.393e-003
                      Temperature (deg C)  =  25.000
                  Electrical balance (eq)  = -4.349e-004
 Percent error, 100*(Cat-|An|)/(Cat+|An|)  =  -0.00
                               Iterations  =   4
                                  Total H  = 1.110130e+002
                                  Total O  = 5.552877e+001

----------------------------Distribution of species----------------------------

                                                   Log       Log         Log 
   Species                 Molality    Activity  Molality  Activity     Gamma

   H+                    3.000e-006  2.109e-006    -5.523    -5.676    -0.153
   OH-                   6.794e-010  3.725e-009    -9.168    -8.429     0.739
   H2O                   5.551e+001  7.846e-001     1.744    -0.105     0.000
As(3)           2.994e-033
   H3AsO3                2.993e-033  1.595e-032   -32.524   -31.797     0.727
   H2AsO3-               9.770e-037  5.356e-036   -36.010   -35.271     0.739
   H4AsO3+               3.040e-039  1.667e-038   -38.517   -37.778     0.739
   HAsO3-2               0.000e+000  0.000e+000   -47.251   -44.295     2.956
   AsO3-3                0.000e+000  0.000e+000   -60.970   -54.319     6.651
   AsS(OH)(HS)-          0.000e+000  0.000e+000  -302.304  -301.565     0.739
   As3S4(HS)2-           0.000e+000  0.000e+000  -898.270  -897.531     0.739
As(5)           5.419e-008
   H2AsO4-               5.416e-008  2.969e-007    -7.266    -6.527     0.739
   H3AsO4                2.343e-011  1.249e-010   -10.630    -9.903     0.727
   HAsO4-2               1.078e-011  9.741e-009   -10.967    -8.011     2.956
   AsO4-3                2.312e-021  1.034e-014   -20.636   -13.985     6.651
C(-4)           0.000e+000
   CH4                   0.000e+000  0.000e+000  -144.419  -143.693     0.727
C(4)            1.393e-003
   HCO3-                 3.625e-004  2.097e-004    -3.441    -3.678    -0.238
   CaHCO3+               3.465e-004  1.900e-003    -3.460    -2.721     0.739
   CO2                   2.378e-004  1.267e-003    -3.624    -2.897     0.727
   MgHCO3+               2.355e-004  1.291e-003    -3.628    -2.889     0.739
   NaHCO3                2.090e-004  1.114e-003    -3.680    -2.953     0.727
   CaCO3                 1.041e-006  5.550e-006    -5.983    -5.256     0.727
   MgCO3                 4.392e-007  2.341e-006    -6.357    -5.631     0.727
   NaCO3-                1.496e-007  8.204e-007    -6.825    -6.086     0.739
   CO3-2                 4.160e-008  4.665e-009    -7.381    -8.331    -0.950
Ca              4.637e-001
   Ca+2                  4.618e-001  7.101e-001    -0.336    -0.149     0.187
   CaSO4                 1.596e-003  8.506e-003    -2.797    -2.070     0.727
   CaHCO3+               3.465e-004  1.900e-003    -3.460    -2.721     0.739
   CaCO3                 1.041e-006  5.550e-006    -5.983    -5.256     0.727
   CaHSO4+               1.917e-008  1.051e-007    -7.717    -6.978     0.739
   CaOH+                 7.999e-009  4.385e-008    -8.097    -7.358     0.739
Cl              6.642e+000
   Cl-                   6.642e+000  3.947e+000     0.822     0.596    -0.226
H(0)            0.000e+000
   H2                    0.000e+000  0.000e+000   -45.226   -44.499     0.727
Mg              1.614e-001
   Mg+2                  1.597e-001  5.260e-001    -0.797    -0.279     0.518
   MgSO4                 1.389e-003  7.403e-003    -2.857    -2.131     0.727
   MgHCO3+               2.355e-004  1.291e-003    -3.628    -2.889     0.739
   MgCO3                 4.392e-007  2.341e-006    -6.357    -5.631     0.727
   MgOH+                 1.296e-007  7.106e-007    -6.887    -6.148     0.739
Na              5.402e+000
   Na+                   5.401e+000  9.445e+000     0.732     0.975     0.243
   NaSO4-                5.183e-004  2.842e-003    -3.285    -2.546     0.739
   NaHCO3                2.090e-004  1.114e-003    -3.680    -2.953     0.727
   NaCO3-                1.496e-007  8.204e-007    -6.825    -6.086     0.739
O(0)            9.589e-005
   O2                    4.795e-005  2.556e-004    -4.319    -3.592     0.727
S(-2)           0.000e+000
   H2S                   0.000e+000  0.000e+000  -140.631  -139.905     0.727
   HS-                   0.000e+000  0.000e+000  -141.909  -141.170     0.739
   S5-2                  0.000e+000  0.000e+000  -144.617  -145.089    -0.473
   S4-2                  0.000e+000  0.000e+000  -144.766  -145.323    -0.558
   S6-2                  0.000e+000  0.000e+000  -144.965  -145.375    -0.410
   S3-2                  0.000e+000  0.000e+000  -148.097  -148.776    -0.680
   S2-2                  0.000e+000  0.000e+000  -149.209  -150.022    -0.813
   S-2                   0.000e+000  0.000e+000  -151.368  -148.412     2.956
   AsS(OH)(HS)-          0.000e+000  0.000e+000  -302.304  -301.565     0.739
   As3S4(HS)2-           0.000e+000  0.000e+000  -898.270  -897.531     0.739
S(6)            4.709e-003
   CaSO4                 1.596e-003  8.506e-003    -2.797    -2.070     0.727
   MgSO4                 1.389e-003  7.403e-003    -2.857    -2.131     0.727
   SO4-2                 1.206e-003  6.003e-005    -2.919    -4.222    -1.303
   NaSO4-                5.183e-004  2.842e-003    -3.285    -2.546     0.739
   CaHSO4+               1.917e-008  1.051e-007    -7.717    -6.978     0.739
   HSO4-                 2.245e-009  1.231e-008    -8.649    -7.910     0.739

------------------------------Saturation indices-------------------------------

	Phase               SI log IAP  log KT

	Anhydrite        -0.01   -4.37   -4.36  CaSO4
	Aragonite        -0.14   -8.48   -8.34  CaCO3
	Arsenolite      -61.90  -63.28   -1.38  As2O3
	Artinite         -7.66    1.94    9.60  MgCO3:Mg(OH)2:3H2O
	As2O5(cr)       -27.72  -19.49    8.23  As2O5
	As2S3(am)      -458.60 -503.50  -44.90  As2S3
	As_native       -80.97  -93.50  -12.53  As
	Brucite          -5.98   10.86   16.84  Mg(OH)2
	Ca3(AsO4)2:4w    -9.93  -28.84  -18.91  Ca3(AsO4)2:4H2O
	Calcite           0.00   -8.48   -8.48  CaCO3
	CH4(g)         -140.83 -143.69   -2.86  CH4
	Claudetite      -61.94  -63.28   -1.34  As2O3
	CO2(g)           -1.43   -2.90   -1.47  CO2
	Dolomite          0.00  -17.09  -17.09  CaMg(CO3)2
	Dolomite(d)      -0.55  -17.09  -16.54  CaMg(CO3)2
	Epsomite         -3.10   -5.24   -2.14  MgSO4:7H2O
	Gypsum           -0.00   -4.58   -4.58  CaSO4:2H2O
	H2(g)           -41.35  -44.50   -3.15  H2
	H2O(g)           -1.62   -0.11    1.51  H2O
	H2S(g)         -138.91 -139.90   -1.00  H2S
	Halite           -0.01    1.57    1.58  NaCl
	Huntite          -4.34  -34.31  -29.97  CaMg3(CO3)4
	Hydromagnesite  -15.24  -24.00   -8.76  Mg5(CO3)4(OH)2:4H2O
	Magnesite        -0.58   -8.61   -8.03  MgCO3
	Mirabilite       -2.21   -3.32   -1.11  Na2SO4:10H2O
	Nahcolite        -2.16   -2.70   -0.55  NaHCO3
	Natron           -6.12   -7.43   -1.31  Na2CO3:10H2O
	Nesquehonite     -3.31   -8.93   -5.62  MgCO3:3H2O
	O2(g)            -0.70   -3.59   -2.89  O2
	Orpiment       -457.20 -503.50  -46.30  As2S3
	Portlandite     -11.81   10.99   22.80  Ca(OH)2
	Realgar        -179.06 -199.00  -19.94  AsS
	Sulfur         -103.39 -118.42  -15.03  S
	Thenardite       -2.09   -2.27   -0.18  Na2SO4
	Thermonatrite    -6.61   -6.49    0.13  Na2CO3:H2O
	Trona            -8.50   -9.29   -0.80  NaHCO3:Na2CO3:2H2O

------------------
End of simulation.
------------------

------------------------------------
Reading input data for simulation 2.
------------------------------------

	SOLUTION 0 20 x precipitation
	        pH      4.6
	        pe      4.0     O2(g)   -0.7
	        temp    25.
	        units   mmol/kgw
	        Ca      .191625
	        Mg      .035797
	        Na      .122668
	        Cl      .133704
	        C       .01096
	        S       .235153         charge
	EQUILIBRIUM_PHASES 0
	        Dolomite        0.0     1.6
	        Calcite         0.0     0.1
	        CO2(g)          -1.5    10.
	SAVE solution 0
	END
-------------------------------------------
Beginning of initial solution calculations.
-------------------------------------------

Initial solution 0.	20 x precipitation

-----------------------------Solution composition------------------------------

	Elements           Molality       Moles

	C                1.096e-005  1.096e-005
	Ca               1.916e-004  1.916e-004
	Cl               1.337e-004  1.337e-004
	Mg               3.580e-005  3.580e-005
	Na               1.227e-004  1.227e-004
	S                2.351e-004  2.351e-004  Charge balance

----------------------------Description of solution----------------------------

                                       pH  =   4.600    
                                       pe  =  16.022      Equilibrium with O2(g)
                        Activity of water  =   1.000
                           Ionic strength  =  1.035e-003
                       Mass of water (kg)  =  1.000e+000
                 Total alkalinity (eq/kg)  = -2.630e-005
                       Total CO2 (mol/kg)  =  1.096e-005
                      Temperature (deg C)  =  25.000
                  Electrical balance (eq)  =  8.174e-016
 Percent error, 100*(Cat-|An|)/(Cat+|An|)  =   0.00
                               Iterations  =   9
                                  Total H  = 1.110125e+002
                                  Total O  = 5.550769e+001

----------------------------Distribution of species----------------------------

                                                   Log       Log         Log 
   Species                 Molality    Activity  Molality  Activity     Gamma

   H+                    2.600e-005  2.512e-005    -4.585    -4.600    -0.015
   OH-                   4.132e-010  3.985e-010    -9.384    -9.400    -0.016
   H2O                   5.551e+001  1.000e+000     1.744    -0.000     0.000
C(-4)           0.000e+000
   CH4                   0.000e+000  0.000e+000  -145.553  -145.553     0.000
C(4)            1.096e-005
   CO2                   1.076e-005  1.076e-005    -4.968    -4.968     0.000
   HCO3-                 1.975e-007  1.906e-007    -6.704    -6.720    -0.015
   CaHCO3+               4.049e-010  3.905e-010    -9.393    -9.408    -0.016
   MgHCO3+               6.905e-011  6.660e-011   -10.161   -10.177    -0.016
   NaHCO3                1.267e-011  1.267e-011   -10.897   -10.897     0.000
   CO3-2                 4.105e-013  3.559e-013   -12.387   -12.449    -0.062
   CaCO3                 9.575e-014  9.577e-014   -13.019   -13.019     0.000
   MgCO3                 1.014e-014  1.014e-014   -13.994   -13.994     0.000
   NaCO3-                8.122e-016  7.833e-016   -15.090   -15.106    -0.016
Ca              1.916e-004
   Ca+2                  1.853e-004  1.606e-004    -3.732    -3.794    -0.062
   CaSO4                 6.296e-006  6.297e-006    -5.201    -5.201     0.000
   CaHSO4+               9.608e-010  9.267e-010    -9.017    -9.033    -0.016
   CaHCO3+               4.049e-010  3.905e-010    -9.393    -9.408    -0.016
   CaOH+                 1.100e-012  1.061e-012   -11.958   -11.974    -0.016
   CaCO3                 9.575e-014  9.577e-014   -13.019   -13.019     0.000
Cl              1.337e-004
   Cl-                   1.337e-004  1.289e-004    -3.874    -3.890    -0.016
H(0)            0.000e+000
   H2                    0.000e+000  0.000e+000   -44.394   -44.394     0.000
Mg              3.580e-005
   Mg+2                  3.442e-005  2.986e-005    -4.463    -4.525    -0.062
   MgSO4                 1.375e-006  1.375e-006    -5.862    -5.862     0.000
   MgHCO3+               6.905e-011  6.660e-011   -10.161   -10.177    -0.016
   MgOH+                 4.475e-012  4.316e-012   -11.349   -11.365    -0.016
   MgCO3                 1.014e-014  1.014e-014   -13.994   -13.994     0.000
Na              1.227e-004
   Na+                   1.225e-004  1.182e-004    -3.912    -3.927    -0.016
   NaSO4-                1.207e-007  1.164e-007    -6.918    -6.934    -0.016
   NaHCO3                1.267e-011  1.267e-011   -10.897   -10.897     0.000
   NaCO3-                8.122e-016  7.833e-016   -15.090   -15.106    -0.016
O(0)            5.112e-004
   O2                    2.556e-004  2.556e-004    -3.592    -3.592     0.000
S(-2)           0.000e+000
   H2S                   0.000e+000  0.000e+000  -137.238  -137.238     0.000
   HS-                   0.000e+000  0.000e+000  -139.564  -139.580    -0.016
   S5-2                  0.000e+000  0.000e+000  -144.517  -144.575    -0.058
   S4-2                  0.000e+000  0.000e+000  -144.749  -144.809    -0.059
   S6-2                  0.000e+000  0.000e+000  -144.804  -144.861    -0.057
   S-2                   0.000e+000  0.000e+000  -147.835  -147.898    -0.063
   S3-2                  0.000e+000  0.000e+000  -148.201  -148.262    -0.060
   S2-2                  0.000e+000  0.000e+000  -149.446  -149.508    -0.061
S(6)            2.351e-004
   SO4-2                 2.268e-004  1.965e-004    -3.644    -3.707    -0.062
   CaSO4                 6.296e-006  6.297e-006    -5.201    -5.201     0.000
   MgSO4                 1.375e-006  1.375e-006    -5.862    -5.862     0.000
   HSO4-                 4.975e-007  4.798e-007    -6.303    -6.319    -0.016
   NaSO4-                1.207e-007  1.164e-007    -6.918    -6.934    -0.016
   CaHSO4+               9.608e-010  9.267e-010    -9.017    -9.033    -0.016

------------------------------Saturation indices-------------------------------

	Phase               SI log IAP  log KT

	Anhydrite        -3.14   -7.50   -4.36  CaSO4
	Aragonite        -7.91  -16.24   -8.34  CaCO3
	Artinite        -21.90  -12.30    9.60  MgCO3:Mg(OH)2:3H2O
	Brucite         -12.16    4.68   16.84  Mg(OH)2
	Calcite          -7.76  -16.24   -8.48  CaCO3
	CH4(g)         -142.69 -145.55   -2.86  CH4
	CO2(g)           -3.50   -4.97   -1.47  CO2
	Dolomite        -16.13  -33.22  -17.09  CaMg(CO3)2
	Dolomite(d)     -16.68  -33.22  -16.54  CaMg(CO3)2
	Epsomite         -6.09   -8.23   -2.14  MgSO4:7H2O
	Gypsum           -2.92   -7.50   -4.58  CaSO4:2H2O
	H2(g)           -41.24  -44.39   -3.15  H2
	H2O(g)           -1.51   -0.00    1.51  H2O
	H2S(g)         -136.24 -137.24   -1.00  H2S
	Halite           -9.40   -7.82    1.58  NaCl
	Huntite         -37.20  -67.16  -29.97  CaMg3(CO3)4
	Hydromagnesite  -54.46  -63.22   -8.76  Mg5(CO3)4(OH)2:4H2O
	Magnesite        -8.94  -16.97   -8.03  MgCO3
	Mirabilite      -10.45  -11.56   -1.11  Na2SO4:10H2O
	Nahcolite       -10.10  -10.65   -0.55  NaHCO3
	Natron          -18.99  -20.30   -1.31  Na2CO3:10H2O
	Nesquehonite    -11.35  -16.97   -5.62  MgCO3:3H2O
	O2(g)            -0.70   -3.59   -2.89  O2
	Portlandite     -17.39    5.41   22.80  Ca(OH)2
	Sulfur         -100.83 -115.85  -15.03  S
	Thenardite      -11.38  -11.56   -0.18  Na2SO4
	Thermonatrite   -20.43  -20.30    0.13  Na2CO3:H2O
	Trona           -30.16  -30.95   -0.80  NaHCO3:Na2CO3:2H2O

-----------------------------------------
Beginning of batch-reaction calculations.
-----------------------------------------

Reaction step 1.

Using solution 0.	20 x precipitation
Using pure phase assemblage 0.	

-------------------------------Phase assemblage--------------------------------

                                                      Moles in assemblage
Phase                  SI log IAP  log KT      Initial       Final       Delta

Calcite              0.00   -8.48   -8.48   1.000e-001  9.966e-002 -3.443e-004
CO2(g)              -1.50   -2.97   -1.47   1.000e+001  9.996e+000 -4.067e-003
Dolomite             0.00  -17.09  -17.09   1.600e+000  1.599e+000 -1.349e-003

-----------------------------Solution composition------------------------------

	Elements           Molality       Moles

	C                7.120e-003  7.119e-003
	Ca               1.885e-003  1.885e-003
	Cl               1.337e-004  1.337e-004
	Mg               1.385e-003  1.384e-003
	Na               1.227e-004  1.227e-004
	S                2.351e-004  2.351e-004

----------------------------Description of solution----------------------------

                                       pH  =   7.047      Charge balance
                                       pe  =  13.575      Adjusted to redox equilibrium
                        Activity of water  =   1.000
                           Ionic strength  =  9.629e-003
                       Mass of water (kg)  =  9.999e-001
                 Total alkalinity (eq/kg)  =  6.057e-003
                       Total CO2 (mol/kg)  =  7.120e-003
                      Temperature (deg C)  =  25.000
                  Electrical balance (eq)  =  2.234e-015
 Percent error, 100*(Cat-|An|)/(Cat+|An|)  =   0.00
                               Iterations  =   9
                                  Total H  = 1.110125e+002
                                  Total O  = 5.552495e+001

----------------------------Distribution of species----------------------------

                                                   Log       Log         Log 
   Species                 Molality    Activity  Molality  Activity     Gamma

   OH-                   1.234e-007  1.115e-007    -6.909    -6.953    -0.044
   H+                    9.814e-008  8.977e-008    -7.008    -7.047    -0.039
   H2O                   5.551e+001  9.998e-001     1.744    -0.000     0.000
C(-4)           0.000e+000
   CH4                   0.000e+000  0.000e+000  -143.556  -143.555     0.001
C(4)            7.120e-003
   HCO3-                 5.883e-003  5.333e-003    -2.230    -2.273    -0.043
   CO2                   1.074e-003  1.077e-003    -2.969    -2.968     0.001
   CaHCO3+               8.950e-005  8.087e-005    -4.048    -4.092    -0.044
   MgHCO3+               6.082e-005  5.496e-005    -4.216    -4.260    -0.044
   CaCO3                 5.537e-006  5.550e-006    -5.257    -5.256     0.001
   CO3-2                 4.124e-006  2.786e-006    -5.385    -5.555    -0.170
   MgCO3                 2.336e-006  2.341e-006    -5.631    -5.631     0.001
   NaHCO3                3.310e-007  3.317e-007    -6.480    -6.479     0.001
   NaCO3-                6.351e-009  5.738e-009    -8.197    -8.241    -0.044
Ca              1.885e-003
   Ca+2                  1.761e-003  1.189e-003    -2.754    -2.925    -0.171
   CaHCO3+               8.950e-005  8.087e-005    -4.048    -4.092    -0.044
   CaSO4                 2.881e-005  2.887e-005    -4.540    -4.539     0.001
   CaCO3                 5.537e-006  5.550e-006    -5.257    -5.256     0.001
   CaOH+                 2.432e-009  2.198e-009    -8.614    -8.658    -0.044
   CaHSO4+               1.681e-011  1.518e-011   -10.775   -10.819    -0.044
Cl              1.337e-004
   Cl-                   1.337e-004  1.206e-004    -3.874    -3.919    -0.045
H(0)            0.000e+000
   H2                    0.000e+000  0.000e+000   -44.395   -44.394     0.001
Mg              1.385e-003
   Mg+2                  1.296e-003  8.806e-004    -2.887    -3.055    -0.168
   MgHCO3+               6.082e-005  5.496e-005    -4.216    -4.260    -0.044
   MgSO4                 2.507e-005  2.513e-005    -4.601    -4.600     0.001
   MgCO3                 2.336e-006  2.341e-006    -5.631    -5.631     0.001
   MgOH+                 3.941e-008  3.561e-008    -7.404    -7.448    -0.044
Na              1.227e-004
   Na+                   1.223e-004  1.106e-004    -3.913    -3.956    -0.044
   NaHCO3                3.310e-007  3.317e-007    -6.480    -6.479     0.001
   NaSO4-                7.467e-008  6.747e-008    -7.127    -7.171    -0.044
   NaCO3-                6.351e-009  5.738e-009    -8.197    -8.241    -0.044
O(0)            5.112e-004
   O2                    2.556e-004  2.562e-004    -3.592    -3.591     0.001
S(-2)           0.000e+000
   HS-                   0.000e+000  0.000e+000  -142.192  -142.236    -0.044
   H2S                   0.000e+000  0.000e+000  -142.342  -142.341     0.001
   S5-2                  0.000e+000  0.000e+000  -144.640  -144.784    -0.144
   S4-2                  0.000e+000  0.000e+000  -144.867  -145.018    -0.151
   S6-2                  0.000e+000  0.000e+000  -144.933  -145.070    -0.138
   S-2                   0.000e+000  0.000e+000  -147.931  -148.107    -0.176
   S3-2                  0.000e+000  0.000e+000  -148.312  -148.471    -0.159
   S2-2                  0.000e+000  0.000e+000  -149.552  -149.717    -0.165
S(6)            2.351e-004
   SO4-2                 1.811e-004  1.217e-004    -3.742    -3.915    -0.173
   CaSO4                 2.881e-005  2.887e-005    -4.540    -4.539     0.001
   MgSO4                 2.507e-005  2.513e-005    -4.601    -4.600     0.001
   NaSO4-                7.467e-008  6.747e-008    -7.127    -7.171    -0.044
   HSO4-                 1.176e-009  1.062e-009    -8.930    -8.974    -0.044
   CaHSO4+               1.681e-011  1.518e-011   -10.775   -10.819    -0.044

------------------------------Saturation indices-------------------------------

	Phase               SI log IAP  log KT

	Anhydrite        -2.48   -6.84   -4.36  CaSO4
	Aragonite        -0.14   -8.48   -8.34  CaCO3
	Artinite         -7.17    2.43    9.60  MgCO3:Mg(OH)2:3H2O
	Brucite          -5.80   11.04   16.84  Mg(OH)2
	Calcite           0.00   -8.48   -8.48  CaCO3
	CH4(g)         -140.69 -143.55   -2.86  CH4
	CO2(g)           -1.50   -2.97   -1.47  CO2
	Dolomite          0.00  -17.09  -17.09  CaMg(CO3)2
	Dolomite(d)      -0.55  -17.09  -16.54  CaMg(CO3)2
	Epsomite         -4.83   -6.97   -2.14  MgSO4:7H2O
	Gypsum           -2.26   -6.84   -4.58  CaSO4:2H2O
	H2(g)           -41.24  -44.39   -3.15  H2
	H2O(g)           -1.51   -0.00    1.51  H2O
	H2S(g)         -141.34 -142.34   -1.00  H2S
	Halite           -9.46   -7.87    1.58  NaCl
	Huntite          -4.34  -34.31  -29.97  CaMg3(CO3)4
	Hydromagnesite  -14.64  -23.40   -8.76  Mg5(CO3)4(OH)2:4H2O
	Magnesite        -0.58   -8.61   -8.03  MgCO3
	Mirabilite      -10.71  -11.83   -1.11  Na2SO4:10H2O
	Nahcolite        -5.68   -6.23   -0.55  NaHCO3
	Natron          -12.16  -13.47   -1.31  Na2CO3:10H2O
	Nesquehonite     -2.99   -8.61   -5.62  MgCO3:3H2O
	O2(g)            -0.70   -3.59   -2.89  O2
	Portlandite     -11.63   11.17   22.80  Ca(OH)2
	Sulfur         -105.93 -120.96  -15.03  S
	Thenardite      -11.65  -11.83   -0.18  Na2SO4
	Thermonatrite   -13.59  -13.47    0.13  Na2CO3:H2O
	Trona           -18.90  -19.70   -0.80  NaHCO3:Na2CO3:2H2O

------------------
End of simulation.
------------------

------------------------------------
Reading input data for simulation 3.
------------------------------------

	SURFACE_SPECIES
	        Hfo_wOH + Mg+2 = Hfo_wOMg+ + H+
	        log_k -15.
	        Hfo_wOH + Ca+2 = Hfo_wOCa+ + H+
	        log_k -15.
	PRINT
		status false
	ADVECTION
	        cells 1
	        shifts 200
	SELECTED_OUTPUT
	        file ex10.pun
	        totals Ca Mg Na Cl C S As
	END
------------------------------------
Beginning of advection calculations.
------------------------------------

Beginning of advection time step 1, cumulative pore volumes 1.000000.

Cell 1.

Using solution 1.	Solution after simulation 2.
Using exchange 1.	Exchange assemblage after simulation 1.
Using surface 1.	Surface assemblage after simulation 1.
Using pure phase assemblage 1.	

-------------------------------Phase assemblage--------------------------------

                                                      Moles in assemblage
Phase                  SI log IAP  log KT      Initial       Final       Delta

Calcite              0.00   -8.48   -8.48   1.000e-001  7.584e-002 -2.416e-002
Dolomite             0.00  -17.09  -17.09   1.600e+000  1.596e+000 -4.061e-003

------------------------------Surface composition------------------------------

Hfo           
	 3.741e-003  Surface charge, eq
	 2.006e-002  sigma, C/m**2
	 3.262e-002  psi, V
	-1.270e+000  -F*psi/RT
	 2.809e-001  exp(-F*psi/RT)
	 6.000e+002  specific area, m**2/g
	 1.800e+004  m**2 for  3.000e+001 g


Hfo_w         
	 7.000e-002  moles
	                                   Mole                     Log
	Species               Moles    Fraction    Molality    Molality

	Hfo_wOH          5.040e-002       0.720  5.040e-002      -1.298
	Hfo_wOH2+        1.333e-002       0.190  1.333e-002      -1.875
	Hfo_wO-          4.365e-003       0.062  4.365e-003      -2.360
	Hfo_wOHAsO4-3    1.471e-003       0.021  1.471e-003      -2.832
	Hfo_wOHSO4-2     3.803e-004       0.005  3.803e-004      -3.420
	Hfo_wSO4-        5.053e-005       0.001  5.053e-005      -4.296
	Hfo_wHAsO4-      2.309e-006       0.000  2.309e-006      -5.637
	Hfo_wH2AsO4      1.977e-008       0.000  1.977e-008      -7.704
	Hfo_wOCa+        3.504e-014       0.000  3.504e-014     -13.455
	Hfo_wOMg+        2.595e-014       0.000  2.596e-014     -13.586
	Hfo_wH2AsO3      4.064e-033       0.000  4.065e-033     -32.391

-----------------------------Exchange composition------------------------------

X               1.000e+000 mol

	                               Equiv-    Equivalent      Log 
	Species             Moles      alents      Fraction     Gamma

	NaX              8.459e-001  8.459e-001  8.459e-001     0.000
	CaX2             5.251e-002  1.050e-001  1.050e-001     0.000
	MgX2             2.454e-002  4.909e-002  4.909e-002     0.000
	HX               5.699e-006  5.699e-006  5.699e-006     0.000

-----------------------------Solution composition------------------------------

	Elements           Molality       Moles

	As               1.180e-009  1.180e-009
	C                3.941e-002  3.941e-002
	Ca               3.307e-004  3.307e-004
	Cl               1.337e-004  1.337e-004
	Mg               2.346e-004  2.346e-004
	Na               8.973e-002  8.973e-002
	S                2.712e-004  2.712e-004

----------------------------Description of solution----------------------------

                                       pH  =   7.316      Charge balance
                                       pe  =  13.308      Adjusted to redox equilibrium
                        Activity of water  =   0.998
                           Ionic strength  =  6.342e-002
                       Mass of water (kg)  =  1.000e+000
                 Total alkalinity (eq/kg)  =  3.646e-002
                       Total CO2 (mol/kg)  =  3.941e-002
                      Temperature (deg C)  =  25.000
                  Electrical balance (eq)  =  5.372e-002
 Percent error, 100*(Cat-|An|)/(Cat+|An|)  =  42.87
                               Iterations  =  10
                                  Total H  = 1.110442e+002
                                  Total O  = 5.562073e+001

----------------------------Distribution of species----------------------------

                                                   Log       Log         Log 
   Species                 Molality    Activity  Molality  Activity     Gamma

   OH-                   2.561e-007  2.068e-007    -6.592    -6.684    -0.093
   H+                    5.720e-008  4.829e-008    -7.243    -7.316    -0.074
   H2O                   5.551e+001  9.978e-001     1.744    -0.001     0.000
As(3)           3.142e-037
   H3AsO3                3.085e-037  3.131e-037   -36.511   -36.504     0.006
   H2AsO3-               5.682e-039  4.589e-039   -38.246   -38.338    -0.093
   H4AsO3+               0.000e+000  0.000e+000   -44.033   -44.125    -0.093
   HAsO3-2               0.000e+000  0.000e+000   -45.351   -45.722    -0.371
   AsO3-3                0.000e+000  0.000e+000   -53.271   -54.106    -0.835
   AsS(OH)(HS)-          0.000e+000  0.000e+000  -310.921  -311.014    -0.093
   As3S4(HS)2-           0.000e+000  0.000e+000  -929.379  -929.472    -0.093
As(5)           1.180e-009
   HAsO4-2               8.627e-010  3.671e-010    -9.064    -9.435    -0.371
   H2AsO4-               3.173e-010  2.563e-010    -9.499    -9.591    -0.093
   AsO4-3                1.163e-013  1.702e-014   -12.934   -13.769    -0.835
   H3AsO4                2.433e-015  2.469e-015   -14.614   -14.607     0.006
C(-4)           0.000e+000
   CH4                   0.000e+000  0.000e+000  -143.114  -143.107     0.006
C(4)            3.941e-002
   HCO3-                 3.501e-002  2.854e-002    -1.456    -1.545    -0.089
   CO2                   3.061e-003  3.106e-003    -2.514    -2.508     0.006
   NaHCO3                1.134e-003  1.150e-003    -2.945    -2.939     0.006
   CO3-2                 6.272e-005  2.772e-005    -4.203    -4.557    -0.355
   CaHCO3+               5.387e-005  4.351e-005    -4.269    -4.361    -0.093
   NaCO3-                4.580e-005  3.699e-005    -4.339    -4.432    -0.093
   MgHCO3+               3.661e-005  2.957e-005    -4.436    -4.529    -0.093
   CaCO3                 5.469e-006  5.550e-006    -5.262    -5.256     0.006
   MgCO3                 2.308e-006  2.341e-006    -5.637    -5.631     0.006
Ca              3.307e-004
   Ca+2                  2.691e-004  1.195e-004    -3.570    -3.923    -0.353
   CaHCO3+               5.387e-005  4.351e-005    -4.269    -4.361    -0.093
   CaCO3                 5.469e-006  5.550e-006    -5.262    -5.256     0.006
   CaSO4                 2.269e-006  2.303e-006    -5.644    -5.638     0.006
   CaOH+                 5.074e-010  4.098e-010    -9.295    -9.387    -0.093
   CaHSO4+               8.067e-013  6.515e-013   -12.093   -12.186    -0.093
Cl              1.337e-004
   Cl-                   1.337e-004  1.066e-004    -3.874    -3.972    -0.099
H(0)            0.000e+000
   H2                    0.000e+000  0.000e+000   -44.404   -44.398     0.006
Mg              2.346e-004
   Mg+2                  1.937e-004  8.853e-005    -3.713    -4.053    -0.340
   MgHCO3+               3.661e-005  2.957e-005    -4.436    -4.529    -0.093
   MgCO3                 2.308e-006  2.341e-006    -5.637    -5.631     0.006
   MgSO4                 1.975e-006  2.004e-006    -5.704    -5.698     0.006
   MgOH+                 8.223e-009  6.641e-009    -8.085    -8.178    -0.093
Na              8.973e-002
   Na+                   8.851e-002  7.168e-002    -1.053    -1.145    -0.092
   NaHCO3                1.134e-003  1.150e-003    -2.945    -2.939     0.006
   NaCO3-                4.580e-005  3.699e-005    -4.339    -4.432    -0.093
   NaSO4-                4.295e-005  3.469e-005    -4.367    -4.460    -0.093
O(0)            5.112e-004
   O2                    2.556e-004  2.594e-004    -3.592    -3.586     0.006
S(-2)           0.000e+000
   HS-                   0.000e+000  0.000e+000  -142.524  -142.617    -0.093
   H2S                   0.000e+000  0.000e+000  -142.998  -142.991     0.006
   S5-2                  0.000e+000  0.000e+000  -144.638  -144.896    -0.258
   S4-2                  0.000e+000  0.000e+000  -144.849  -145.130    -0.281
   S6-2                  0.000e+000  0.000e+000  -144.944  -145.182    -0.238
   S-2                   0.000e+000  0.000e+000  -147.848  -148.219    -0.371
   S3-2                  0.000e+000  0.000e+000  -148.274  -148.583    -0.309
   S2-2                  0.000e+000  0.000e+000  -149.495  -149.829    -0.334
   AsS(OH)(HS)-          0.000e+000  0.000e+000  -310.921  -311.014    -0.093
   As3S4(HS)2-           0.000e+000  0.000e+000  -929.379  -929.472    -0.093
S(6)            2.712e-004
   SO4-2                 2.240e-004  9.656e-005    -3.650    -4.015    -0.366
   NaSO4-                4.295e-005  3.469e-005    -4.367    -4.460    -0.093
   CaSO4                 2.269e-006  2.303e-006    -5.644    -5.638     0.006
   MgSO4                 1.975e-006  2.004e-006    -5.704    -5.698     0.006
   HSO4-                 5.614e-010  4.534e-010    -9.251    -9.344    -0.093
   CaHSO4+               8.067e-013  6.515e-013   -12.093   -12.186    -0.093

------------------------------Saturation indices-------------------------------

	Phase               SI log IAP  log KT

	Anhydrite        -3.58   -7.94   -4.36  CaSO4
	Aragonite        -0.14   -8.48   -8.34  CaCO3
	Arsenolite      -71.63  -73.01   -1.38  As2O3
	Artinite         -7.64    1.96    9.60  MgCO3:Mg(OH)2:3H2O
	As2O5(cr)       -37.44  -29.21    8.23  As2O5
	As2S3(am)      -477.90 -522.80  -44.90  As2S3
	As_native       -85.84  -98.37  -12.53  As
	Brucite          -6.26   10.58   16.84  Mg(OH)2
	Ca3(AsO4)2:4w   -20.40  -39.31  -18.91  Ca3(AsO4)2:4H2O
	Calcite           0.00   -8.48   -8.48  CaCO3
	CH4(g)         -140.25 -143.11   -2.86  CH4
	Claudetite      -71.67  -73.01   -1.34  As2O3
	CO2(g)           -1.04   -2.51   -1.47  CO2
	Dolomite          0.00  -17.09  -17.09  CaMg(CO3)2
	Dolomite(d)      -0.55  -17.09  -16.54  CaMg(CO3)2
	Epsomite         -5.93   -8.07   -2.14  MgSO4:7H2O
	Gypsum           -3.36   -7.94   -4.58  CaSO4:2H2O
	H2(g)           -41.25  -44.40   -3.15  H2
	H2O(g)           -1.51   -0.00    1.51  H2O
	H2S(g)         -141.99 -142.99   -1.00  H2S
	Halite           -6.70   -5.12    1.58  NaCl
	Huntite          -4.34  -34.31  -29.97  CaMg3(CO3)4
	Hydromagnesite  -15.11  -23.87   -8.76  Mg5(CO3)4(OH)2:4H2O
	Magnesite        -0.58   -8.61   -8.03  MgCO3
	Mirabilite       -5.20   -6.31   -1.11  Na2SO4:10H2O
	Nahcolite        -2.14   -2.69   -0.55  NaHCO3
	Natron           -5.55   -6.86   -1.31  Na2CO3:10H2O
	Nesquehonite     -2.99   -8.61   -5.62  MgCO3:3H2O
	O2(g)            -0.69   -3.59   -2.89  O2
	Orpiment       -476.50 -522.80  -46.30  As2S3
	Portlandite     -12.09   10.71   22.80  Ca(OH)2
	Realgar        -187.11 -207.06  -19.94  AsS
	Sulfur         -106.58 -121.60  -15.03  S
	Thenardite       -6.13   -6.30   -0.18  Na2SO4
	Thermonatrite    -6.97   -6.85    0.13  Na2CO3:H2O
	Trona            -8.74   -9.54   -0.80  NaHCO3:Na2CO3:2H2O

Beginning of advection time step 2, cumulative pore volumes 2.000000.

Cell 1.

Using solution 1.	Solution after simulation 2.
Using exchange 1.	Exchange assemblage after simulation 3.
Using surface 1.	Surface assemblage after simulation 3.
Using pure phase assemblage 1.	Pure-phase assemblage after simulation 3.

-------------------------------Phase assemblage--------------------------------

                                                      Moles in assemblage
Phase                  SI log IAP  log KT      Initial       Final       Delta

Calcite              0.00   -8.48   -8.48   7.584e-002  7.202e-002 -3.814e-003
Dolomite             0.00  -17.09  -17.09   1.596e+000  1.594e+000 -2.412e-003

------------------------------Surface composition------------------------------

Hfo           
	-2.429e-003  Surface charge, eq
	-1.302e-002  sigma, C/m**2
	-3.578e-002  psi, V
	 1.393e+000  -F*psi/RT
	 4.025e+000  exp(-F*psi/RT)
	 6.000e+002  specific area, m**2/g
	 1.800e+004  m**2 for  3.000e+001 g


Hfo_w         
	 7.000e-002  moles
	                                   Mole                     Log
	Species               Moles    Fraction    Molality    Molality

	Hfo_wOH          5.250e-002       0.750  5.250e-002      -1.280
	Hfo_wOH2+        9.011e-003       0.129  9.011e-003      -2.045
	Hfo_wO-          7.008e-003       0.100  7.008e-003      -2.154
	Hfo_wOHAsO4-3    1.472e-003       0.021  1.472e-003      -2.832
	Hfo_wOHSO4-2     7.035e-006       0.000  7.036e-006      -5.153
	Hfo_wHAsO4-      9.715e-007       0.000  9.715e-007      -6.013
	Hfo_wSO4-        6.056e-007       0.000  6.056e-007      -6.218
	Hfo_wH2AsO4      5.395e-009       0.000  5.396e-009      -8.268
	Hfo_wOCa+        1.146e-012       0.000  1.147e-012     -11.941
	Hfo_wOMg+        8.492e-013       0.000  8.493e-013     -12.071
	Hfo_wH2AsO3      1.115e-033       0.000  1.115e-033     -32.953

-----------------------------Exchange composition------------------------------

X               1.000e+000 mol

	                               Equiv-    Equivalent      Log 
	Species             Moles      alents      Fraction     Gamma

	NaX              8.222e-001  8.222e-001  8.222e-001     0.000
	CaX2             6.060e-002  1.212e-001  1.212e-001     0.000
	MgX2             2.832e-002  5.664e-002  5.664e-002     0.000
	HX               8.799e-007  8.799e-007  8.799e-007     0.000

-----------------------------Solution composition------------------------------

	Elements           Molality       Moles

	As               8.506e-008  8.505e-008
	C                1.576e-002  1.576e-002
	Ca               2.914e-005  2.914e-005
	Cl               1.337e-004  1.337e-004
	Mg               1.962e-005  1.962e-005
	Na               2.384e-002  2.384e-002
	S                6.582e-004  6.582e-004

----------------------------Description of solution----------------------------

                                       pH  =   8.660      Charge balance
                                       pe  =  11.962      Adjusted to redox equilibrium
                        Activity of water  =   0.999
                           Ionic strength  =  2.165e-002
                       Mass of water (kg)  =  9.999e-001
                 Total alkalinity (eq/kg)  =  1.631e-002
                       Total CO2 (mol/kg)  =  1.576e-002
                      Temperature (deg C)  =  25.000
                  Electrical balance (eq)  =  6.171e-003
 Percent error, 100*(Cat-|An|)/(Cat+|An|)  =  15.04
                               Iterations  =  11
                                  Total H  = 1.110194e+002
                                  Total O  = 5.555251e+001

----------------------------Distribution of species----------------------------

                                                   Log       Log         Log 
   Species                 Molality    Activity  Molality  Activity     Gamma

   OH-                   5.277e-006  4.575e-006    -5.278    -5.340    -0.062
   H+                    2.466e-009  2.187e-009    -8.608    -8.660    -0.052
   H2O                   5.551e+001  9.993e-001     1.744    -0.000     0.000
As(3)           1.130e-037
   H3AsO3                8.213e-038  8.254e-038   -37.085   -37.083     0.002
   H2AsO3-               3.082e-038  2.672e-038   -37.511   -37.573    -0.062
   HAsO3-2               0.000e+000  0.000e+000   -43.365   -43.613    -0.248
   H4AsO3+               0.000e+000  0.000e+000   -45.986   -46.049    -0.062
   AsO3-3                0.000e+000  0.000e+000   -50.095   -50.653    -0.558
   AsS(OH)(HS)-          0.000e+000  0.000e+000  -314.424  -314.486    -0.062
   As3S4(HS)2-           0.000e+000  0.000e+000  -942.516  -942.578    -0.062
As(5)           8.506e-008
   HAsO4-2               8.317e-008  4.698e-008    -7.080    -7.328    -0.248
   H2AsO4-               1.713e-009  1.485e-009    -8.766    -8.828    -0.062
   AsO4-3                1.739e-010  4.809e-011    -9.760   -10.318    -0.558
   H3AsO4                6.447e-016  6.480e-016   -15.191   -15.188     0.002
C(-4)           0.000e+000
   CH4                   0.000e+000  0.000e+000  -144.785  -144.783     0.002
C(4)            1.576e-002
   HCO3-                 1.493e-002  1.302e-002    -1.826    -1.885    -0.059
   CO3-2                 4.827e-004  2.792e-004    -3.316    -3.554    -0.238
   NaHCO3                1.489e-004  1.496e-004    -3.827    -3.825     0.002
   NaCO3-                1.225e-004  1.062e-004    -3.912    -3.974    -0.062
   CO2                   6.374e-005  6.406e-005    -4.196    -4.193     0.002
   CaCO3                 5.522e-006  5.550e-006    -5.258    -5.256     0.002
   MgCO3                 2.330e-006  2.341e-006    -5.633    -5.631     0.002
   CaHCO3+               2.273e-006  1.970e-006    -5.643    -5.705    -0.062
   MgHCO3+               1.544e-006  1.339e-006    -5.811    -5.873    -0.062
Ca              2.914e-005
   Ca+2                  2.052e-005  1.186e-005    -4.688    -4.926    -0.238
   CaCO3                 5.522e-006  5.550e-006    -5.258    -5.256     0.002
   CaHCO3+               2.273e-006  1.970e-006    -5.643    -5.705    -0.062
   CaSO4                 8.293e-007  8.335e-007    -6.081    -6.079     0.002
   CaOH+                 1.038e-009  8.997e-010    -8.984    -9.046    -0.062
   CaHSO4+               1.232e-014  1.068e-014   -13.909   -13.972    -0.062
Cl              1.337e-004
   Cl-                   1.337e-004  1.155e-004    -3.874    -3.938    -0.064
H(0)            0.000e+000
   H2                    0.000e+000  0.000e+000   -44.397   -44.395     0.002
Mg              1.962e-005
   Mg+2                  1.501e-005  8.788e-006    -4.824    -5.056    -0.232
   MgCO3                 2.330e-006  2.341e-006    -5.633    -5.631     0.002
   MgHCO3+               1.544e-006  1.339e-006    -5.811    -5.873    -0.062
   MgSO4                 7.218e-007  7.254e-007    -6.142    -6.139     0.002
   MgOH+                 1.682e-008  1.458e-008    -7.774    -7.836    -0.062
Na              2.384e-002
   Na+                   2.352e-002  2.043e-002    -1.628    -1.690    -0.061
   NaHCO3                1.489e-004  1.496e-004    -3.827    -3.825     0.002
   NaCO3-                1.225e-004  1.062e-004    -3.912    -3.974    -0.062
   NaSO4-                4.159e-005  3.606e-005    -4.381    -4.443    -0.062
O(0)            5.112e-004
   O2                    2.556e-004  2.569e-004    -3.592    -3.590     0.002
S(-2)           0.000e+000
   HS-                   0.000e+000  0.000e+000  -143.329  -143.391    -0.062
   S5-2                  0.000e+000  0.000e+000  -144.136  -144.325    -0.190
   S4-2                  0.000e+000  0.000e+000  -144.357  -144.559    -0.202
   S6-2                  0.000e+000  0.000e+000  -144.433  -144.611    -0.179
   H2S                   0.000e+000  0.000e+000  -145.111  -145.109     0.002
   S-2                   0.000e+000  0.000e+000  -147.400  -147.648    -0.248
   S3-2                  0.000e+000  0.000e+000  -147.796  -148.012    -0.216
   S2-2                  0.000e+000  0.000e+000  -149.030  -149.258    -0.228
   AsS(OH)(HS)-          0.000e+000  0.000e+000  -314.424  -314.486    -0.062
   As3S4(HS)2-           0.000e+000  0.000e+000  -942.516  -942.578    -0.062
S(6)            6.582e-004
   SO4-2                 6.151e-004  3.521e-004    -3.211    -3.453    -0.242
   NaSO4-                4.159e-005  3.606e-005    -4.381    -4.443    -0.062
   CaSO4                 8.293e-007  8.335e-007    -6.081    -6.079     0.002
   MgSO4                 7.218e-007  7.254e-007    -6.142    -6.139     0.002
   HSO4-                 8.635e-011  7.486e-011   -10.064   -10.126    -0.062
   CaHSO4+               1.232e-014  1.068e-014   -13.909   -13.972    -0.062

------------------------------Saturation indices-------------------------------

	Phase               SI log IAP  log KT

	Anhydrite        -4.02   -8.38   -4.36  CaSO4
	Aragonite        -0.14   -8.48   -8.34  CaCO3
	Arsenolite      -72.79  -74.17   -1.38  As2O3
	Artinite         -5.95    3.65    9.60  MgCO3:Mg(OH)2:3H2O
	As2O5(cr)       -38.60  -30.38    8.23  As2O5
	As2S3(am)      -485.42 -530.32  -44.90  As2S3
	As_native       -86.42  -98.95  -12.53  As
	Brucite          -4.58   12.26   16.84  Mg(OH)2
	Ca3(AsO4)2:4w   -16.51  -35.41  -18.91  Ca3(AsO4)2:4H2O
	Calcite           0.00   -8.48   -8.48  CaCO3
	CH4(g)         -141.92 -144.78   -2.86  CH4
	Claudetite      -72.83  -74.17   -1.34  As2O3
	CO2(g)           -2.73   -4.19   -1.47  CO2
	Dolomite          0.00  -17.09  -17.09  CaMg(CO3)2
	Dolomite(d)      -0.55  -17.09  -16.54  CaMg(CO3)2
	Epsomite         -6.37   -8.51   -2.14  MgSO4:7H2O
	Gypsum           -3.80   -8.38   -4.58  CaSO4:2H2O
	H2(g)           -41.25  -44.40   -3.15  H2
	H2O(g)           -1.51   -0.00    1.51  H2O
	H2S(g)         -144.11 -145.11   -1.00  H2S
	Halite           -7.21   -5.63    1.58  NaCl
	Huntite          -4.34  -34.31  -29.97  CaMg3(CO3)4
	Hydromagnesite  -13.42  -22.18   -8.76  Mg5(CO3)4(OH)2:4H2O
	Magnesite        -0.58   -8.61   -8.03  MgCO3
	Mirabilite       -5.72   -6.84   -1.11  Na2SO4:10H2O
	Nahcolite        -3.03   -3.58   -0.55  NaHCO3
	Natron           -5.63   -6.94   -1.31  Na2CO3:10H2O
	Nesquehonite     -2.99   -8.61   -5.62  MgCO3:3H2O
	O2(g)            -0.70   -3.59   -2.89  O2
	Orpiment       -484.02 -530.32  -46.30  As2S3
	Portlandite     -10.41   12.39   22.80  Ca(OH)2
	Realgar        -189.81 -209.76  -19.94  AsS
	Sulfur         -108.70 -123.72  -15.03  S
	Thenardite       -6.65   -6.83   -0.18  Na2SO4
	Thermonatrite    -7.06   -6.93    0.13  Na2CO3:H2O
	Trona            -9.71  -10.51   -0.80  NaHCO3:Na2CO3:2H2O

Beginning of advection time step 3, cumulative pore volumes 3.000000.

Cell 1.

Using solution 1.	Solution after simulation 2.
Using exchange 1.	Exchange assemblage after simulation 3.
Using surface 1.	Surface assemblage after simulation 3.
Using pure phase assemblage 1.	Pure-phase assemblage after simulation 3.

-------------------------------Phase assemblage--------------------------------

                                                      Moles in assemblage
Phase                  SI log IAP  log KT      Initial       Final       Delta

Calcite              0.00   -8.48   -8.48   7.202e-002  6.986e-002 -2.160e-003
Dolomite             0.00  -17.09  -17.09   1.594e+000  1.593e+000 -9.539e-004

------------------------------Surface composition------------------------------

Hfo           
	-4.230e-003  Surface charge, eq
	-2.267e-002  sigma, C/m**2
	-6.370e-002  psi, V
	 2.480e+000  -F*psi/RT
	 1.194e+001  exp(-F*psi/RT)
	 6.000e+002  specific area, m**2/g
	 1.800e+004  m**2 for  3.000e+001 g


Hfo_w         
	 7.000e-002  moles
	                                   Mole                     Log
	Species               Moles    Fraction    Molality    Molality

	Hfo_wOH          5.260e-002       0.751  5.261e-002      -1.279
	Hfo_wOH2+        8.056e-003       0.115  8.056e-003      -2.094
	Hfo_wO-          7.869e-003       0.112  7.869e-003      -2.104
	Hfo_wOHAsO4-3    1.472e-003       0.021  1.472e-003      -2.832
	Hfo_wHAsO4-      7.731e-007       0.000  7.731e-007      -6.112
	Hfo_wOHSO4-2     3.268e-007       0.000  3.269e-007      -6.486
	Hfo_wSO4-        2.510e-008       0.000  2.510e-008      -7.600
	Hfo_wH2AsO4      3.831e-009       0.000  3.831e-009      -8.417
	Hfo_wOCa+        5.027e-012       0.000  5.027e-012     -11.299
	Hfo_wOMg+        3.723e-012       0.000  3.724e-012     -11.429
	Hfo_wH2AsO3      7.921e-034       0.000  7.922e-034     -33.101

-----------------------------Exchange composition------------------------------

X               1.000e+000 mol

	                               Equiv-    Equivalent      Log 
	Species             Moles      alents      Fraction     Gamma

	NaX              8.075e-001  8.075e-001  8.075e-001     0.000
	CaX2             6.558e-002  1.312e-001  1.312e-001     0.000
	MgX2             3.065e-002  6.130e-002  6.130e-002     0.000
	HX               4.133e-007  4.133e-007  4.133e-007     0.000

-----------------------------Solution composition------------------------------

	Elements           Molality       Moles

	As               6.077e-007  6.077e-007
	C                1.119e-002  1.119e-002
	Ca               1.479e-005  1.479e-005
	Cl               1.337e-004  1.337e-004
	Mg               9.138e-006  9.137e-006
	Na               1.475e-002  1.475e-002
	S                2.424e-004  2.423e-004

----------------------------Description of solution----------------------------

                                       pH  =   9.182      Charge balance
                                       pe  =  11.441      Adjusted to redox equilibrium
                        Activity of water  =   1.000
                           Ionic strength  =  1.489e-002
                       Mass of water (kg)  =  9.999e-001
                 Total alkalinity (eq/kg)  =  1.238e-002
                       Total CO2 (mol/kg)  =  1.119e-002
                      Temperature (deg C)  =  25.000
                  Electrical balance (eq)  =  1.800e-003
 Percent error, 100*(Cat-|An|)/(Cat+|An|)  =   6.60
                               Iterations  =  13
                                  Total H  = 1.110143e+002
                                  Total O  = 5.553718e+001

----------------------------Distribution of species----------------------------

                                                   Log       Log         Log 
   Species                 Molality    Activity  Molality  Activity     Gamma

   OH-                   1.719e-005  1.521e-005    -4.765    -4.818    -0.053
   H+                    7.310e-010  6.580e-010    -9.136    -9.182    -0.046
   H2O                   5.551e+001  9.996e-001     1.744    -0.000     0.000
As(3)           1.296e-037
   H2AsO3-               7.120e-038  6.301e-038   -37.148   -37.201    -0.053
   H3AsO3                5.836e-038  5.856e-038   -37.234   -37.232     0.001
   HAsO3-2               0.000e+000  0.000e+000   -42.506   -42.719    -0.212
   H4AsO3+               0.000e+000  0.000e+000   -46.666   -46.719    -0.053
   AsO3-3                0.000e+000  0.000e+000   -48.759   -49.237    -0.478
   AsS(OH)(HS)-          0.000e+000  0.000e+000  -316.924  -316.977    -0.053
   As3S4(HS)2-           0.000e+000  0.000e+000  -951.040  -951.093    -0.053
As(5)           6.077e-007
   HAsO4-2               6.000e-007  3.679e-007    -6.222    -6.434    -0.212
   H2AsO4-               3.954e-009  3.499e-009    -8.403    -8.456    -0.053
   AsO4-3                3.763e-009  1.252e-009    -8.425    -8.903    -0.478
   H3AsO4                4.578e-016  4.593e-016   -15.339   -15.338     0.001
C(-4)           0.000e+000
   CH4                   0.000e+000  0.000e+000  -145.474  -145.472     0.001
C(4)            1.119e-002
   HCO3-                 9.925e-003  8.824e-003    -2.003    -2.054    -0.051
   CO3-2                 1.007e-003  6.289e-004    -2.997    -3.201    -0.204
   NaCO3-                1.701e-004  1.505e-004    -3.769    -3.822    -0.053
   NaHCO3                6.357e-005  6.378e-005    -4.197    -4.195     0.001
   CO2                   1.301e-005  1.306e-005    -4.886    -4.884     0.001
   CaCO3                 5.531e-006  5.550e-006    -5.257    -5.256     0.001
   MgCO3                 2.333e-006  2.341e-006    -5.632    -5.631     0.001
   CaHCO3+               6.699e-007  5.928e-007    -6.174    -6.227    -0.053
   MgHCO3+               4.552e-007  4.028e-007    -6.342    -6.395    -0.053
Ca              1.479e-005
   Ca+2                  8.438e-006  5.267e-006    -5.074    -5.278    -0.205
   CaCO3                 5.531e-006  5.550e-006    -5.257    -5.256     0.001
   CaHCO3+               6.699e-007  5.928e-007    -6.174    -6.227    -0.053
   CaSO4                 1.504e-007  1.509e-007    -6.823    -6.821     0.001
   CaOH+                 1.501e-009  1.328e-009    -8.824    -8.877    -0.053
   CaHSO4+               6.573e-016  5.817e-016   -15.182   -15.235    -0.053
Cl              1.337e-004
   Cl-                   1.337e-004  1.180e-004    -3.874    -3.928    -0.054
H(0)            0.000e+000
   H2                    0.000e+000  0.000e+000   -44.396   -44.395     0.001
Mg              9.138e-006
   Mg+2                  6.194e-006  3.902e-006    -5.208    -5.409    -0.201
   MgCO3                 2.333e-006  2.341e-006    -5.632    -5.631     0.001
   MgHCO3+               4.552e-007  4.028e-007    -6.342    -6.395    -0.053
   MgSO4                 1.309e-007  1.313e-007    -6.883    -6.882     0.001
   MgOH+                 2.432e-008  2.152e-008    -7.614    -7.667    -0.053
Na              1.475e-002
   Na+                   1.450e-002  1.285e-002    -1.838    -1.891    -0.052
   NaCO3-                1.701e-004  1.505e-004    -3.769    -3.822    -0.053
   NaHCO3                6.357e-005  6.378e-005    -4.197    -4.195     0.001
   NaSO4-                1.045e-005  9.250e-006    -4.981    -5.034    -0.053
O(0)            5.112e-004
   O2                    2.556e-004  2.565e-004    -3.592    -3.591     0.001
S(-2)           0.000e+000
   HS-                   0.000e+000  0.000e+000  -144.247  -144.300    -0.053
   S5-2                  0.000e+000  0.000e+000  -144.546  -144.714    -0.168
   S4-2                  0.000e+000  0.000e+000  -144.770  -144.948    -0.177
   S6-2                  0.000e+000  0.000e+000  -144.840  -145.000    -0.159
   H2S                   0.000e+000  0.000e+000  -146.542  -146.541     0.001
   S-2                   0.000e+000  0.000e+000  -147.824  -148.037    -0.212
   S3-2                  0.000e+000  0.000e+000  -148.212  -148.401    -0.188
   S2-2                  0.000e+000  0.000e+000  -149.449  -149.647    -0.197
   AsS(OH)(HS)-          0.000e+000  0.000e+000  -316.924  -316.977    -0.053
   As3S4(HS)2-           0.000e+000  0.000e+000  -951.040  -951.093    -0.053
S(6)            2.424e-004
   SO4-2                 2.316e-004  1.436e-004    -3.635    -3.843    -0.208
   NaSO4-                1.045e-005  9.250e-006    -4.981    -5.034    -0.053
   CaSO4                 1.504e-007  1.509e-007    -6.823    -6.821     0.001
   MgSO4                 1.309e-007  1.313e-007    -6.883    -6.882     0.001
   HSO4-                 1.038e-011  9.185e-012   -10.984   -11.037    -0.053
   CaHSO4+               6.573e-016  5.817e-016   -15.182   -15.235    -0.053

------------------------------Saturation indices-------------------------------

	Phase               SI log IAP  log KT

	Anhydrite        -4.76   -9.12   -4.36  CaSO4
	Aragonite        -0.14   -8.48   -8.34  CaCO3
	Arsenolite      -73.08  -74.46   -1.38  As2O3
	Artinite         -5.26    4.34    9.60  MgCO3:Mg(OH)2:3H2O
	As2O5(cr)       -38.90  -30.68    8.23  As2O5
	As2S3(am)      -490.01 -534.91  -44.90  As2S3
	As_native       -86.57  -99.10  -12.53  As
	Brucite          -3.89   12.95   16.84  Mg(OH)2
	Ca3(AsO4)2:4w   -14.74  -33.64  -18.91  Ca3(AsO4)2:4H2O
	Calcite           0.00   -8.48   -8.48  CaCO3
	CH4(g)         -142.61 -145.47   -2.86  CH4
	Claudetite      -73.12  -74.46   -1.34  As2O3
	CO2(g)           -3.42   -4.88   -1.47  CO2
	Dolomite          0.00  -17.09  -17.09  CaMg(CO3)2
	Dolomite(d)      -0.55  -17.09  -16.54  CaMg(CO3)2
	Epsomite         -7.11   -9.25   -2.14  MgSO4:7H2O
	Gypsum           -4.54   -9.12   -4.58  CaSO4:2H2O
	H2(g)           -41.24  -44.39   -3.15  H2
	H2O(g)           -1.51   -0.00    1.51  H2O
	H2S(g)         -145.54 -146.54   -1.00  H2S
	Halite           -7.40   -5.82    1.58  NaCl
	Huntite          -4.34  -34.31  -29.97  CaMg3(CO3)4
	Hydromagnesite  -12.73  -21.49   -8.76  Mg5(CO3)4(OH)2:4H2O
	Magnesite        -0.58   -8.61   -8.03  MgCO3
	Mirabilite       -6.51   -7.63   -1.11  Na2SO4:10H2O
	Nahcolite        -3.40   -3.95   -0.55  NaHCO3
	Natron           -5.67   -6.99   -1.31  Na2CO3:10H2O
	Nesquehonite     -2.99   -8.61   -5.62  MgCO3:3H2O
	O2(g)            -0.70   -3.59   -2.89  O2
	Orpiment       -488.61 -534.91  -46.30  As2S3
	Portlandite      -9.72   13.08   22.80  Ca(OH)2
	Realgar        -191.39 -211.34  -19.94  AsS
	Sulfur         -110.13 -125.16  -15.03  S
	Thenardite       -7.45   -7.62   -0.18  Na2SO4
	Thermonatrite    -7.11   -6.98    0.13  Na2CO3:H2O
	Trona           -10.13  -10.93   -0.80  NaHCO3:Na2CO3:2H2O

Beginning of advection time step 4, cumulative pore volumes 4.000000.

Cell 1.

Using solution 1.	Solution after simulation 2.
Using exchange 1.	Exchange assemblage after simulation 3.
Using surface 1.	Surface assemblage after simulation 3.
Using pure phase assemblage 1.	Pure-phase assemblage after simulation 3.

-------------------------------Phase assemblage--------------------------------

                                                      Moles in assemblage
Phase                  SI log IAP  log KT      Initial       Final       Delta

Calcite              0.00   -8.48   -8.48   6.986e-002  6.807e-002 -1.788e-003
Dolomite             0.00  -17.09  -17.09   1.593e+000  1.592e+000 -6.262e-004

------------------------------Surface composition------------------------------

Hfo           
	-4.794e-003  Surface charge, eq
	-2.570e-002  sigma, C/m**2
	-7.118e-002  psi, V
	 2.771e+000  -F*psi/RT
	 1.597e+001  exp(-F*psi/RT)
	 6.000e+002  specific area, m**2/g
	 1.800e+004  m**2 for  3.000e+001 g


Hfo_w         
	 7.000e-002  moles
	                                   Mole                     Log
	Species               Moles    Fraction    Molality    Molality

	Hfo_wOH          5.260e-002       0.751  5.260e-002      -1.279
	Hfo_wO-          8.154e-003       0.116  8.154e-003      -2.089
	Hfo_wOH2+        7.774e-003       0.111  7.774e-003      -2.109
	Hfo_wOHAsO4-3    1.471e-003       0.021  1.471e-003      -2.832
	Hfo_wHAsO4-      7.194e-007       0.000  7.195e-007      -6.143
	Hfo_wOHSO4-2     1.813e-007       0.000  1.813e-007      -6.742
	Hfo_wSO4-        1.343e-008       0.000  1.343e-008      -7.872
	Hfo_wH2AsO4      3.440e-009       0.000  3.441e-009      -8.463
	Hfo_wOCa+        7.635e-012       0.000  7.636e-012     -11.117
	Hfo_wOMg+        5.656e-012       0.000  5.656e-012     -11.247
	Hfo_wH2AsO3      7.114e-034       0.000  7.115e-034     -33.148

-----------------------------Exchange composition------------------------------

X               1.000e+000 mol

	                               Equiv-    Equivalent      Log 
	Species             Moles      alents      Fraction     Gamma

	NaX              7.950e-001  7.950e-001  7.950e-001     0.000
	CaX2             6.986e-002  1.397e-001  1.397e-001     0.000
	MgX2             3.265e-002  6.530e-002  6.530e-002     0.000
	HX               3.401e-007  3.401e-007  3.401e-007     0.000

-----------------------------Solution composition------------------------------

	Elements           Molality       Moles

	As               1.031e-006  1.031e-006
	C                1.016e-002  1.016e-002
	Ca               1.293e-005  1.293e-005
	Cl               1.337e-004  1.337e-004
	Mg               7.787e-006  7.786e-006
	Na               1.270e-002  1.270e-002
	S                2.352e-004  2.352e-004

----------------------------Description of solution----------------------------

                                       pH  =   9.324      Charge balance
                                       pe  =  11.299      Adjusted to redox equilibrium
                        Activity of water  =   1.000
                           Ionic strength  =  1.365e-002
                       Mass of water (kg)  =  9.999e-001
                 Total alkalinity (eq/kg)  =  1.157e-002
                       Total CO2 (mol/kg)  =  1.016e-002
                      Temperature (deg C)  =  25.000
                  Electrical balance (eq)  =  5.640e-004
 Percent error, 100*(Cat-|An|)/(Cat+|An|)  =   2.31
                               Iterations  =  17
                                  Total H  = 1.110130e+002
                                  Total O  = 5.553407e+001

----------------------------Distribution of species----------------------------

                                                   Log       Log         Log 
   Species                 Molality    Activity  Molality  Activity     Gamma

   OH-                   2.373e-005  2.109e-005    -4.625    -4.676    -0.051
   H+                    5.254e-010  4.746e-010    -9.279    -9.324    -0.044
   H2O                   5.551e+001  9.996e-001     1.744    -0.000     0.000
As(3)           1.407e-037
   H2AsO3-               8.828e-038  7.847e-038   -37.054   -37.105    -0.051
   H3AsO3                5.243e-038  5.260e-038   -37.280   -37.279     0.001
   HAsO3-2               0.000e+000  0.000e+000   -42.277   -42.482    -0.205
   H4AsO3+               0.000e+000  0.000e+000   -46.857   -46.908    -0.051
   AsO3-3                0.000e+000  0.000e+000   -48.397   -48.858    -0.461
   AsS(OH)(HS)-          0.000e+000  0.000e+000  -317.404  -317.455    -0.051
   As3S4(HS)2-           0.000e+000  0.000e+000  -952.761  -952.812    -0.051
As(5)           1.031e-006
   HAsO4-2               1.018e-006  6.351e-007    -5.992    -6.197    -0.205
   AsO4-3                8.657e-009  2.996e-009    -8.063    -8.523    -0.461
   H2AsO4-               4.902e-009  4.357e-009    -8.310    -8.361    -0.051
   H3AsO4                4.112e-016  4.125e-016   -15.386   -15.385     0.001
C(-4)           0.000e+000
   CH4                   0.000e+000  0.000e+000  -145.670  -145.669     0.001
C(4)            1.016e-002
   HCO3-                 8.706e-003  7.772e-003    -2.060    -2.109    -0.049
   CO3-2                 1.209e-003  7.681e-004    -2.917    -3.115    -0.197
   NaCO3-                1.785e-004  1.587e-004    -3.748    -3.800    -0.051
   NaHCO3                4.834e-005  4.849e-005    -4.316    -4.314     0.001
   CO2                   8.270e-006  8.296e-006    -5.083    -5.081     0.001
   CaCO3                 5.532e-006  5.550e-006    -5.257    -5.256     0.001
   MgCO3                 2.334e-006  2.341e-006    -5.632    -5.631     0.001
   CaHCO3+               4.810e-007  4.275e-007    -6.318    -6.369    -0.051
   MgHCO3+               3.269e-007  2.905e-007    -6.486    -6.537    -0.051
Ca              1.293e-005
   Ca+2                  6.796e-006  4.313e-006    -5.168    -5.365    -0.197
   CaCO3                 5.532e-006  5.550e-006    -5.257    -5.256     0.001
   CaHCO3+               4.810e-007  4.275e-007    -6.318    -6.369    -0.051
   CaSO4                 1.223e-007  1.227e-007    -6.913    -6.911     0.001
   CaOH+                 1.696e-009  1.508e-009    -8.770    -8.822    -0.051
   CaHSO4+               3.837e-016  3.410e-016   -15.416   -15.467    -0.051
Cl              1.337e-004
   Cl-                   1.337e-004  1.186e-004    -3.874    -3.926    -0.052
H(0)            0.000e+000
   H2                    0.000e+000  0.000e+000   -44.396   -44.395     0.001
Mg              7.787e-006
   Mg+2                  4.992e-006  3.195e-006    -5.302    -5.496    -0.194
   MgCO3                 2.334e-006  2.341e-006    -5.632    -5.631     0.001
   MgHCO3+               3.269e-007  2.905e-007    -6.486    -6.537    -0.051
   MgSO4                 1.064e-007  1.068e-007    -6.973    -6.972     0.001
   MgOH+                 2.749e-008  2.443e-008    -7.561    -7.612    -0.051
Na              1.270e-002
   Na+                   1.246e-002  1.109e-002    -1.904    -1.955    -0.051
   NaCO3-                1.785e-004  1.587e-004    -3.748    -3.800    -0.051
   NaHCO3                4.834e-005  4.849e-005    -4.316    -4.314     0.001
   NaSO4-                8.918e-006  7.926e-006    -5.050    -5.101    -0.051
O(0)            5.112e-004
   O2                    2.556e-004  2.564e-004    -3.592    -3.591     0.001
S(-2)           0.000e+000
   HS-                   0.000e+000  0.000e+000  -144.394  -144.445    -0.051
   S5-2                  0.000e+000  0.000e+000  -144.554  -144.717    -0.163
   S4-2                  0.000e+000  0.000e+000  -144.779  -144.951    -0.172
   S6-2                  0.000e+000  0.000e+000  -144.848  -145.003    -0.155
   H2S                   0.000e+000  0.000e+000  -146.829  -146.827     0.001
   S-2                   0.000e+000  0.000e+000  -147.835  -148.040    -0.205
   S3-2                  0.000e+000  0.000e+000  -148.221  -148.404    -0.182
   S2-2                  0.000e+000  0.000e+000  -149.459  -149.650    -0.191
   AsS(OH)(HS)-          0.000e+000  0.000e+000  -317.404  -317.455    -0.051
   As3S4(HS)2-           0.000e+000  0.000e+000  -952.761  -952.812    -0.051
S(6)            2.352e-004
   SO4-2                 2.261e-004  1.426e-004    -3.646    -3.846    -0.200
   NaSO4-                8.918e-006  7.926e-006    -5.050    -5.101    -0.051
   CaSO4                 1.223e-007  1.227e-007    -6.913    -6.911     0.001
   MgSO4                 1.064e-007  1.068e-007    -6.973    -6.972     0.001
   HSO4-                 7.400e-012  6.577e-012   -11.131   -11.182    -0.051
   CaHSO4+               3.837e-016  3.410e-016   -15.416   -15.467    -0.051

------------------------------Saturation indices-------------------------------

	Phase               SI log IAP  log KT

	Anhydrite        -4.85   -9.21   -4.36  CaSO4
	Aragonite        -0.14   -8.48   -8.34  CaCO3
	Arsenolite      -73.18  -74.56   -1.38  As2O3
	Artinite         -5.06    4.54    9.60  MgCO3:Mg(OH)2:3H2O
	As2O5(cr)       -39.00  -30.77    8.23  As2O5
	As2S3(am)      -490.96 -535.86  -44.90  As2S3
	As_native       -86.61  -99.15  -12.53  As
	Brucite          -3.69   13.15   16.84  Mg(OH)2
	Ca3(AsO4)2:4w   -14.24  -33.14  -18.91  Ca3(AsO4)2:4H2O
	Calcite           0.00   -8.48   -8.48  CaCO3
	CH4(g)         -142.81 -145.67   -2.86  CH4
	Claudetite      -73.22  -74.56   -1.34  As2O3
	CO2(g)           -3.61   -5.08   -1.47  CO2
	Dolomite          0.00  -17.09  -17.09  CaMg(CO3)2
	Dolomite(d)      -0.55  -17.09  -16.54  CaMg(CO3)2
	Epsomite         -7.20   -9.34   -2.14  MgSO4:7H2O
	Gypsum           -4.63   -9.21   -4.58  CaSO4:2H2O
	H2(g)           -41.24  -44.39   -3.15  H2
	H2O(g)           -1.51   -0.00    1.51  H2O
	H2S(g)         -145.83 -146.83   -1.00  H2S
	Halite           -7.46   -5.88    1.58  NaCl
	Huntite          -4.34  -34.31  -29.97  CaMg3(CO3)4
	Hydromagnesite  -12.53  -21.29   -8.76  Mg5(CO3)4(OH)2:4H2O
	Magnesite        -0.58   -8.61   -8.03  MgCO3
	Mirabilite       -6.64   -7.76   -1.11  Na2SO4:10H2O
	Nahcolite        -3.52   -4.06   -0.55  NaHCO3
	Natron           -5.72   -7.03   -1.31  Na2CO3:10H2O
	Nesquehonite     -2.99   -8.61   -5.62  MgCO3:3H2O
	O2(g)            -0.70   -3.59   -2.89  O2
	Orpiment       -489.56 -535.86  -46.30  As2S3
	Portlandite      -9.52   13.28   22.80  Ca(OH)2
	Realgar        -191.73 -211.67  -19.94  AsS
	Sulfur         -110.42 -125.44  -15.03  S
[...]
	Hfo_wSO4-        2.036e-004       0.003  2.036e-004      -3.691
	Hfo_wHAsO4-      2.544e-006       0.000  2.544e-006      -5.594
	Hfo_wH2AsO4      2.304e-008       0.000  2.304e-008      -7.638
	Hfo_wOCa+        1.002e-013       0.000  1.002e-013     -12.999
	Hfo_wOMg+        7.956e-014       0.000  7.957e-014     -13.099
	Hfo_wH2AsO3      4.766e-033       0.000  4.766e-033     -32.322

-----------------------------Exchange composition------------------------------

X               1.000e+000 mol

	                               Equiv-    Equivalent      Log 
	Species             Moles      alents      Fraction     Gamma

	CaX2             3.328e-001  6.656e-001  6.656e-001     0.000
	MgX2             1.667e-001  3.334e-001  3.334e-001     0.000
	NaX              1.059e-003  1.059e-003  1.059e-003     0.000
	HX               8.614e-006  8.614e-006  8.614e-006     0.000

-----------------------------Solution composition------------------------------

	Elements           Molality       Moles

	As               3.719e-010  3.719e-010
	C                7.117e-003  7.116e-003
	Ca               1.828e-003  1.828e-003
	Cl               1.337e-004  1.337e-004
	Mg               1.439e-003  1.439e-003
	Na               1.228e-004  1.228e-004
	S                2.351e-004  2.351e-004

----------------------------Description of solution----------------------------

                                       pH  =   7.045      Charge balance
                                       pe  =  13.577      Adjusted to redox equilibrium
                        Activity of water  =   1.000
                           Ionic strength  =  9.622e-003
                       Mass of water (kg)  =  9.999e-001
                 Total alkalinity (eq/kg)  =  6.052e-003
                       Total CO2 (mol/kg)  =  7.117e-003
                      Temperature (deg C)  =  25.000
                  Electrical balance (eq)  =  1.546e-008
 Percent error, 100*(Cat-|An|)/(Cat+|An|)  =   0.00
                               Iterations  =  10
                                  Total H  = 1.110125e+002
                                  Total O  = 5.552494e+001

----------------------------Distribution of species----------------------------

                                                   Log       Log         Log 
   Species                 Molality    Activity  Molality  Activity     Gamma

   OH-                   1.230e-007  1.111e-007    -6.910    -6.954    -0.044
   H+                    9.846e-008  9.006e-008    -7.007    -7.045    -0.039
   H2O                   5.551e+001  9.998e-001     1.744    -0.000     0.000
As(3)           3.798e-037
   H3AsO3                3.766e-037  3.774e-037   -36.424   -36.423     0.001
   H2AsO3-               3.283e-039  2.967e-039   -38.484   -38.528    -0.044
   H4AsO3+               0.000e+000  0.000e+000   -43.730   -43.774    -0.044
   HAsO3-2               0.000e+000  0.000e+000   -46.006   -46.182    -0.176
   AsO3-3                0.000e+000  0.000e+000   -54.441   -54.837    -0.396
   AsS(OH)(HS)-          0.000e+000  0.000e+000  -309.856  -309.900    -0.044
   As3S4(HS)2-           0.000e+000  0.000e+000  -925.548  -925.592    -0.044
As(5)           3.719e-010
   HAsO4-2               1.897e-010  1.265e-010    -9.722    -9.898    -0.176
   H2AsO4-               1.822e-010  1.646e-010    -9.739    -9.783    -0.044
   AsO4-3                7.829e-015  3.144e-015   -14.106   -14.503    -0.396
   H3AsO4                2.952e-015  2.958e-015   -14.530   -14.529     0.001
C(-4)           0.000e+000
   CH4                   0.000e+000  0.000e+000  -143.555  -143.554     0.001
C(4)            7.117e-003
   HCO3-                 5.878e-003  5.329e-003    -2.231    -2.273    -0.043
   CO2                   1.077e-003  1.079e-003    -2.968    -2.967     0.001
   CaHCO3+               8.674e-005  7.838e-005    -4.062    -4.106    -0.044
   MgHCO3+               6.317e-005  5.708e-005    -4.200    -4.244    -0.044
   CaCO3                 5.349e-006  5.361e-006    -5.272    -5.271     0.001
   CO3-2                 4.107e-006  2.775e-006    -5.386    -5.557    -0.170
   MgCO3                 2.419e-006  2.424e-006    -5.616    -5.615     0.001
   NaHCO3                3.310e-007  3.318e-007    -6.480    -6.479     0.001
   NaCO3-                6.331e-009  5.721e-009    -8.199    -8.243    -0.044
Ca              1.828e-003
   Ca+2                  1.708e-003  1.153e-003    -2.768    -2.938    -0.171
   CaHCO3+               8.674e-005  7.838e-005    -4.062    -4.106    -0.044
   CaSO4                 2.794e-005  2.800e-005    -4.554    -4.553     0.001
   CaCO3                 5.349e-006  5.361e-006    -5.272    -5.271     0.001
   CaOH+                 2.351e-009  2.125e-009    -8.629    -8.673    -0.044
   CaHSO4+               1.635e-011  1.477e-011   -10.787   -10.831    -0.044
Cl              1.337e-004
   Cl-                   1.337e-004  1.206e-004    -3.874    -3.919    -0.045
H(0)            0.000e+000
   H2                    0.000e+000  0.000e+000   -44.395   -44.394     0.001
Mg              1.439e-003
   Mg+2                  1.347e-003  9.153e-004    -2.871    -3.038    -0.168
   MgHCO3+               6.317e-005  5.708e-005    -4.200    -4.244    -0.044
   MgSO4                 2.605e-005  2.611e-005    -4.584    -4.583     0.001
   MgCO3                 2.419e-006  2.424e-006    -5.616    -5.615     0.001
   MgOH+                 4.083e-008  3.690e-008    -7.389    -7.433    -0.044
Na              1.228e-004
   Na+                   1.224e-004  1.107e-004    -3.912    -3.956    -0.044
   NaHCO3                3.310e-007  3.318e-007    -6.480    -6.479     0.001
   NaSO4-                7.472e-008  6.752e-008    -7.127    -7.171    -0.044
   NaCO3-                6.331e-009  5.721e-009    -8.199    -8.243    -0.044
O(0)            5.112e-004
   O2                    2.556e-004  2.562e-004    -3.592    -3.591     0.001
S(-2)           0.000e+000
   HS-                   0.000e+000  0.000e+000  -142.191  -142.235    -0.044
   H2S                   0.000e+000  0.000e+000  -142.340  -142.339     0.001
   S5-2                  0.000e+000  0.000e+000  -144.640  -144.784    -0.144
   S4-2                  0.000e+000  0.000e+000  -144.867  -145.018    -0.151
   S6-2                  0.000e+000  0.000e+000  -144.933  -145.070    -0.138
   S-2                   0.000e+000  0.000e+000  -147.931  -148.107    -0.176
   S3-2                  0.000e+000  0.000e+000  -148.313  -148.471    -0.159
   S2-2                  0.000e+000  0.000e+000  -149.552  -149.717    -0.165
   AsS(OH)(HS)-          0.000e+000  0.000e+000  -309.856  -309.900    -0.044
   As3S4(HS)2-           0.000e+000  0.000e+000  -925.548  -925.592    -0.044
S(6)            2.351e-004
   SO4-2                 1.810e-004  1.217e-004    -3.742    -3.915    -0.173
   CaSO4                 2.794e-005  2.800e-005    -4.554    -4.553     0.001
   MgSO4                 2.605e-005  2.611e-005    -4.584    -4.583     0.001
   NaSO4-                7.472e-008  6.752e-008    -7.127    -7.171    -0.044
   HSO4-                 1.179e-009  1.066e-009    -8.928    -8.972    -0.044
   CaHSO4+               1.635e-011  1.477e-011   -10.787   -10.831    -0.044

------------------------------Saturation indices-------------------------------

	Phase               SI log IAP  log KT

	Anhydrite        -2.49   -6.85   -4.36  CaSO4
	Aragonite        -0.16   -8.49   -8.34  CaCO3
	Arsenolite      -71.47  -72.85   -1.38  As2O3
	Artinite         -7.14    2.46    9.60  MgCO3:Mg(OH)2:3H2O
	As2O5(cr)       -37.29  -29.06    8.23  As2O5
	As2S3(am)      -475.79 -520.69  -44.90  As2S3
	As_native       -85.76  -98.29  -12.53  As
	Brucite          -5.79   11.05   16.84  Mg(OH)2
	Ca3(AsO4)2:4w   -18.91  -37.82  -18.91  Ca3(AsO4)2:4H2O
	Calcite          -0.02   -8.49   -8.48  CaCO3
	CH4(g)         -140.69 -143.55   -2.86  CH4
	Claudetite      -71.51  -72.85   -1.34  As2O3
	CO2(g)           -1.50   -2.97   -1.47  CO2
	Dolomite          0.00  -17.09  -17.09  CaMg(CO3)2
	Dolomite(d)      -0.55  -17.09  -16.54  CaMg(CO3)2
	Epsomite         -4.81   -6.95   -2.14  MgSO4:7H2O
	Gypsum           -2.27   -6.85   -4.58  CaSO4:2H2O
	H2(g)           -41.24  -44.39   -3.15  H2
	H2O(g)           -1.51   -0.00    1.51  H2O
	H2S(g)         -141.34 -142.34   -1.00  H2S
	Halite           -9.46   -7.87    1.58  NaCl
	Huntite          -4.31  -34.28  -29.97  CaMg3(CO3)4
	Hydromagnesite  -14.57  -23.33   -8.76  Mg5(CO3)4(OH)2:4H2O
	Magnesite        -0.57   -8.60   -8.03  MgCO3
	Mirabilite      -10.71  -11.83   -1.11  Na2SO4:10H2O
	Nahcolite        -5.68   -6.23   -0.55  NaHCO3
	Natron          -12.16  -13.47   -1.31  Na2CO3:10H2O
	Nesquehonite     -2.97   -8.60   -5.62  MgCO3:3H2O
	O2(g)            -0.70   -3.59   -2.89  O2
	Orpiment       -474.39 -520.69  -46.30  As2S3
	Portlandite     -11.65   11.15   22.80  Ca(OH)2
	Realgar        -186.38 -206.33  -19.94  AsS
	Sulfur         -105.93 -120.95  -15.03  S
	Thenardite      -11.65  -11.83   -0.18  Na2SO4
	Thermonatrite   -13.59  -13.47    0.13  Na2CO3:H2O
	Trona           -18.90  -19.70   -0.80  NaHCO3:Na2CO3:2H2O

Beginning of advection time step 200, cumulative pore volumes 200.000000.

Cell 1.

Using solution 1.	Solution after simulation 2.
Using exchange 1.	Exchange assemblage after simulation 3.
Using surface 1.	Surface assemblage after simulation 3.
Using pure phase assemblage 1.	Pure-phase assemblage after simulation 3.

-------------------------------Phase assemblage--------------------------------

                                                      Moles in assemblage
Phase                  SI log IAP  log KT      Initial       Final       Delta

Calcite             -0.01   -8.49   -8.48   0.000e+000           0  0.000e+000
Dolomite             0.00  -17.09  -17.09   1.572e+000  1.572e+000  1.335e-006

------------------------------Surface composition------------------------------

Hfo           
	 2.262e-003  Surface charge, eq
	 1.213e-002  sigma, C/m**2
	 4.718e-002  psi, V
	-1.837e+000  -F*psi/RT
	 1.594e-001  exp(-F*psi/RT)
	 6.000e+002  specific area, m**2/g
	 1.800e+004  m**2 for  3.000e+001 g


Hfo_w         
	 7.000e-002  moles
	                                   Mole                     Log
	Species               Moles    Fraction    Molality    Molality

	Hfo_wOH          4.912e-002       0.702  4.913e-002      -1.309
	Hfo_wOH2+        1.375e-002       0.196  1.375e-002      -1.862
	Hfo_wO-          4.022e-003       0.057  4.022e-003      -2.396
	Hfo_wOHSO4-2     1.452e-003       0.021  1.452e-003      -2.838
	Hfo_wOHAsO4-3    1.451e-003       0.021  1.451e-003      -2.838
	Hfo_wSO4-        2.036e-004       0.003  2.036e-004      -3.691
	Hfo_wHAsO4-      2.544e-006       0.000  2.544e-006      -5.594
	Hfo_wH2AsO4      2.304e-008       0.000  2.304e-008      -7.638
	Hfo_wOCa+        1.003e-013       0.000  1.003e-013     -12.999
	Hfo_wOMg+        7.954e-014       0.000  7.955e-014     -13.099
	Hfo_wH2AsO3      4.766e-033       0.000  4.766e-033     -32.322

-----------------------------Exchange composition------------------------------

X               1.000e+000 mol

	                               Equiv-    Equivalent      Log 
	Species             Moles      alents      Fraction     Gamma

	CaX2             3.328e-001  6.657e-001  6.657e-001     0.000
	MgX2             1.666e-001  3.332e-001  3.332e-001     0.000
	NaX              1.059e-003  1.059e-003  1.059e-003     0.000
	HX               8.613e-006  8.613e-006  8.613e-006     0.000

-----------------------------Solution composition------------------------------

	Elements           Molality       Moles

	As               3.719e-010  3.719e-010
	C                7.117e-003  7.116e-003
	Ca               1.828e-003  1.828e-003
	Cl               1.337e-004  1.337e-004
	Mg               1.438e-003  1.438e-003
	Na               1.228e-004  1.228e-004
	S                2.351e-004  2.351e-004

----------------------------Description of solution----------------------------

                                       pH  =   7.045      Charge balance
                                       pe  =  13.577      Adjusted to redox equilibrium
                        Activity of water  =   1.000
                           Ionic strength  =  9.622e-003
                       Mass of water (kg)  =  9.999e-001
                 Total alkalinity (eq/kg)  =  6.052e-003
                       Total CO2 (mol/kg)  =  7.117e-003
                      Temperature (deg C)  =  25.000
                  Electrical balance (eq)  =  1.552e-008
 Percent error, 100*(Cat-|An|)/(Cat+|An|)  =   0.00
                               Iterations  =  10
                                  Total H  = 1.110125e+002
                                  Total O  = 5.552494e+001

----------------------------Distribution of species----------------------------

                                                   Log       Log         Log 
   Species                 Molality    Activity  Molality  Activity     Gamma

   OH-                   1.230e-007  1.111e-007    -6.910    -6.954    -0.044
   H+                    9.846e-008  9.006e-008    -7.007    -7.045    -0.039
   H2O                   5.551e+001  9.998e-001     1.744    -0.000     0.000
As(3)           3.798e-037
   H3AsO3                3.765e-037  3.774e-037   -36.424   -36.423     0.001
   H2AsO3-               3.283e-039  2.967e-039   -38.484   -38.528    -0.044
   H4AsO3+               0.000e+000  0.000e+000   -43.730   -43.774    -0.044
   HAsO3-2               0.000e+000  0.000e+000   -46.006   -46.182    -0.176
   AsO3-3                0.000e+000  0.000e+000   -54.441   -54.837    -0.396
   AsS(OH)(HS)-          0.000e+000  0.000e+000  -309.856  -309.900    -0.044
   As3S4(HS)2-           0.000e+000  0.000e+000  -925.548  -925.592    -0.044
As(5)           3.719e-010
   HAsO4-2               1.897e-010  1.265e-010    -9.722    -9.898    -0.176
   H2AsO4-               1.822e-010  1.646e-010    -9.739    -9.783    -0.044
   AsO4-3                7.829e-015  3.144e-015   -14.106   -14.503    -0.396
   H3AsO4                2.952e-015  2.958e-015   -14.530   -14.529     0.001
C(-4)           0.000e+000
   CH4                   0.000e+000  0.000e+000  -143.555  -143.554     0.001
C(4)            7.117e-003
   HCO3-                 5.878e-003  5.329e-003    -2.231    -2.273    -0.043
   CO2                   1.077e-003  1.079e-003    -2.968    -2.967     0.001
   CaHCO3+               8.676e-005  7.839e-005    -4.062    -4.106    -0.044
   MgHCO3+               6.315e-005  5.706e-005    -4.200    -4.244    -0.044
   CaCO3                 5.350e-006  5.362e-006    -5.272    -5.271     0.001
   CO3-2                 4.107e-006  2.775e-006    -5.386    -5.557    -0.170
   MgCO3                 2.418e-006  2.423e-006    -5.617    -5.616     0.001
   NaHCO3                3.310e-007  3.317e-007    -6.480    -6.479     0.001
   NaCO3-                6.331e-009  5.720e-009    -8.199    -8.243    -0.044
Ca              1.828e-003
   Ca+2                  1.708e-003  1.153e-003    -2.768    -2.938    -0.171
   CaHCO3+               8.676e-005  7.839e-005    -4.062    -4.106    -0.044
   CaSO4                 2.794e-005  2.800e-005    -4.554    -4.553     0.001
   CaCO3                 5.350e-006  5.362e-006    -5.272    -5.271     0.001
   CaOH+                 2.352e-009  2.125e-009    -8.629    -8.673    -0.044
   CaHSO4+               1.635e-011  1.477e-011   -10.786   -10.830    -0.044
Cl              1.337e-004
   Cl-                   1.337e-004  1.206e-004    -3.874    -3.919    -0.045
H(0)            0.000e+000
   H2                    0.000e+000  0.000e+000   -44.395   -44.394     0.001
Mg              1.438e-003
   Mg+2                  1.347e-003  9.151e-004    -2.871    -3.039    -0.168
   MgHCO3+               6.315e-005  5.706e-005    -4.200    -4.244    -0.044
   MgSO4                 2.605e-005  2.611e-005    -4.584    -4.583     0.001
   MgCO3                 2.418e-006  2.423e-006    -5.617    -5.616     0.001
   MgOH+                 4.082e-008  3.689e-008    -7.389    -7.433    -0.044
Na              1.228e-004
   Na+                   1.224e-004  1.107e-004    -3.912    -3.956    -0.044
   NaHCO3                3.310e-007  3.317e-007    -6.480    -6.479     0.001
   NaSO4-                7.472e-008  6.752e-008    -7.127    -7.171    -0.044
   NaCO3-                6.331e-009  5.720e-009    -8.199    -8.243    -0.044
O(0)            5.112e-004
   O2                    2.556e-004  2.562e-004    -3.592    -3.591     0.001
S(-2)           0.000e+000
   HS-                   0.000e+000  0.000e+000  -142.191  -142.235    -0.044
   H2S                   0.000e+000  0.000e+000  -142.340  -142.339     0.001
   S5-2                  0.000e+000  0.000e+000  -144.640  -144.784    -0.144
   S4-2                  0.000e+000  0.000e+000  -144.867  -145.018    -0.151
   S6-2                  0.000e+000  0.000e+000  -144.933  -145.070    -0.138
   S-2                   0.000e+000  0.000e+000  -147.931  -148.107    -0.176
   S3-2                  0.000e+000  0.000e+000  -148.313  -148.471    -0.159
   S2-2                  0.000e+000  0.000e+000  -149.552  -149.717    -0.165
   AsS(OH)(HS)-          0.000e+000  0.000e+000  -309.856  -309.900    -0.044
   As3S4(HS)2-           0.000e+000  0.000e+000  -925.548  -925.592    -0.044
S(6)            2.351e-004
   SO4-2                 1.810e-004  1.217e-004    -3.742    -3.915    -0.173
   CaSO4                 2.794e-005  2.800e-005    -4.554    -4.553     0.001
   MgSO4                 2.605e-005  2.611e-005    -4.584    -4.583     0.001
   NaSO4-                7.472e-008  6.752e-008    -7.127    -7.171    -0.044
   HSO4-                 1.179e-009  1.066e-009    -8.928    -8.972    -0.044
   CaHSO4+               1.635e-011  1.477e-011   -10.786   -10.830    -0.044

------------------------------Saturation indices-------------------------------

	Phase               SI log IAP  log KT

	Anhydrite        -2.49   -6.85   -4.36  CaSO4
	Aragonite        -0.16   -8.49   -8.34  CaCO3
	Arsenolite      -71.47  -72.85   -1.38  As2O3
	Artinite         -7.14    2.46    9.60  MgCO3:Mg(OH)2:3H2O
	As2O5(cr)       -37.29  -29.06    8.23  As2O5
	As2S3(am)      -475.79 -520.69  -44.90  As2S3
	As_native       -85.76  -98.29  -12.53  As
	Brucite          -5.79   11.05   16.84  Mg(OH)2
	Ca3(AsO4)2:4w   -18.91  -37.82  -18.91  Ca3(AsO4)2:4H2O
	Calcite          -0.01   -8.49   -8.48  CaCO3
	CH4(g)         -140.69 -143.55   -2.86  CH4
	Claudetite      -71.51  -72.85   -1.34  As2O3
	CO2(g)           -1.50   -2.97   -1.47  CO2
	Dolomite          0.00  -17.09  -17.09  CaMg(CO3)2
	Dolomite(d)      -0.55  -17.09  -16.54  CaMg(CO3)2
	Epsomite         -4.81   -6.95   -2.14  MgSO4:7H2O
	Gypsum           -2.27   -6.85   -4.58  CaSO4:2H2O
	H2(g)           -41.24  -44.39   -3.15  H2
	H2O(g)           -1.51   -0.00    1.51  H2O
	H2S(g)         -141.34 -142.34   -1.00  H2S
	Halite           -9.46   -7.87    1.58  NaCl
	Huntite          -4.31  -34.28  -29.97  CaMg3(CO3)4
	Hydromagnesite  -14.57  -23.33   -8.76  Mg5(CO3)4(OH)2:4H2O
	Magnesite        -0.57   -8.60   -8.03  MgCO3
	Mirabilite      -10.71  -11.83   -1.11  Na2SO4:10H2O
	Nahcolite        -5.68   -6.23   -0.55  NaHCO3
	Natron          -12.16  -13.47   -1.31  Na2CO3:10H2O
	Nesquehonite     -2.97   -8.60   -5.62  MgCO3:3H2O
	O2(g)            -0.70   -3.59   -2.89  O2
	Orpiment       -474.39 -520.69  -46.30  As2S3
	Portlandite     -11.65   11.15   22.80  Ca(OH)2
	Realgar        -186.38 -206.33  -19.94  AsS
	Sulfur         -105.93 -120.95  -15.03  S
	Thenardite      -11.65  -11.83   -0.18  Na2SO4
	Thermonatrite   -13.59  -13.47    0.13  Na2CO3:H2O
	Trona           -18.90  -19.70   -0.80  NaHCO3:Na2CO3:2H2O

------------------
End of simulation.
------------------

------------------------------------
Reading input data for simulation 4.
------------------------------------

-----------
End of run.
-----------

