   Input file: ex6
  Output file: ex6.out
Database file: ../database/phreeqc.dat

------------------
Reading data base.
------------------

	SOLUTION_MASTER_SPECIES
	SOLUTION_SPECIES
	PHASES
	EXCHANGE_MASTER_SPECIES
	EXCHANGE_SPECIES
	SURFACE_MASTER_SPECIES
	SURFACE_SPECIES
	RATES
	END
------------------------------------
Reading input data for simulation 1.
------------------------------------

	DATABASE ../database/phreeqc.dat
	knobs
		logfile
	TITLE Example 6A.--React to phase boundaries.
	SOLUTION 1  PURE WATER
	            pH    7.0 charge
	          temp   25.0
	PHASES 1
	        Gibbsite
	                Al(OH)3 + 3 H+ = Al+3 + 3 H2O
	                log_k          8.049
	                delta_h        -22.792 kcal
	        Kaolinite
	                Al2Si2O5(OH)4 + 6 H+ = H2O + 2 H4SiO4 + 2 Al+3
	                log_k          5.708
	                delta_h        -35.306 kcal
	        Muscovite
	                KAl3Si3O10(OH)2 + 10 H+ = 3 Al+3 + 3 H4SiO4 + K+
	                log_k          12.970
	                delta_h        -59.377 kcal
	        Microcline
	                KAlSi3O8 + 4 H2O + 4 H+ = Al+3 + 3 H4SiO4 + K+
	                log_k          0.875
	                delta_h        -12.467 kcal
	END
-----
TITLE
-----

 Example 6A.--React to phase boundaries.

-------------------------------------------
Beginning of initial solution calculations.
-------------------------------------------

Initial solution 1.	PURE WATER

-----------------------------Solution composition------------------------------

	Elements           Molality       Moles

	Pure water     

----------------------------Description of solution----------------------------

                                       pH  =   7.000      Charge balance
                                       pe  =   4.000    
       Specific Conductance (uS/cm, 25 oC) = 0
                          Density (g/cm3)  =   0.99705
                        Activity of water  =   1.000
                           Ionic strength  =  1.001e-007
                       Mass of water (kg)  =  1.000e+000
                 Total alkalinity (eq/kg)  =  3.121e-018
                    Total carbon (mol/kg)  =  0.000e+000
                       Total CO2 (mol/kg)  =  0.000e+000
                      Temperature (deg C)  =  25.000
                  Electrical balance (eq)  = -3.121e-018
 Percent error, 100*(Cat-|An|)/(Cat+|An|)  =  -0.00
                               Iterations  =   2
                                  Total H  = 1.110124e+002
                                  Total O  = 5.550622e+001

----------------------------Distribution of species----------------------------

                                                   Log       Log         Log 
   Species                 Molality    Activity  Molality  Activity     Gamma

   OH-                   1.001e-007  1.001e-007    -7.000    -7.000    -0.000
   H+                    1.001e-007  1.001e-007    -7.000    -7.000    -0.000
   H2O                   5.551e+001  1.000e+000     1.744    -0.000     0.000
H(0)            1.417e-025
   H2                    7.087e-026  7.087e-026   -25.150   -25.150     0.000
O(0)            0.000e+000
   O2                    0.000e+000  0.000e+000   -42.081   -42.081     0.000

------------------------------Saturation indices-------------------------------

	Phase               SI log IAP  log KT

	H2(g)           -22.00  -25.15   -3.15  H2
	H2O(g)           -1.51   -0.00    1.51  H2O
	O2(g)           -39.19  -42.08   -2.89  O2

------------------
End of simulation.
------------------

------------------------------------
Reading input data for simulation 2.
------------------------------------

	TITLE Example 6A1.--Find amount of k-spar dissolved to 
	                    reach gibbsite saturation.
	SELECTED_OUTPUT
	        file           ex6.pun
	        activities     K+ H+ H4SiO4
	        si             Gibbsite Kaolinite Muscovite Microcline
	        equilibrium_phases    Gibbsite Kaolinite Muscovite Microcline
	USE solution 1
	EQUILIBRIUM_PHASES 1
	        Gibbsite        0.0     KAlSi3O8        10.0
	        Kaolinite       0.0     0.0
	        Muscovite       0.0     0.0
	        Microcline      0.0     0.0
	END
-----
TITLE
-----

 Example 6A1.--Find amount of k-spar dissolved to 
                    reach gibbsite saturation.

-----------------------------------------
Beginning of batch-reaction calculations.
-----------------------------------------

Reaction step 1.

Using solution 1.	PURE WATER
Using pure phase assemblage 1.	

-------------------------------Phase assemblage--------------------------------

                                                      Moles in assemblage
Phase                  SI log IAP  log KT      Initial       Final       Delta

Gibbsite             0.00    8.05    8.05
	 KAlSi3O8           is reactant     1.000e+001  1.000e+001 -2.671e-008
Kaolinite           -3.80    1.90    5.71   0.000e+000           0  0.000e+000
Microcline         -14.68  -13.81    0.88   0.000e+000           0  0.000e+000
Muscovite          -10.68    2.29   12.97   0.000e+000           0  0.000e+000

-----------------------------Solution composition------------------------------

	Elements           Molality       Moles

	Al               2.671e-008  2.671e-008
	K                2.671e-008  2.671e-008
	Si               8.013e-008  8.013e-008

----------------------------Description of solution----------------------------

                                       pH  =   7.006      Charge balance
                                       pe  =  11.468      Adjusted to redox equilibrium
       Specific Conductance (uS/cm, 25 oC) = 0
                          Density (g/cm3)  =   0.99705
                        Activity of water  =   1.000
                           Ionic strength  =  1.262e-007
                       Mass of water (kg)  =  1.000e+000
                 Total alkalinity (eq/kg)  =  1.068e-007
                    Total carbon (mol/kg)  =  0.000e+000
                       Total CO2 (mol/kg)  =  0.000e+000
                      Temperature (deg C)  =  25.000
                  Electrical balance (eq)  = -5.300e-017
 Percent error, 100*(Cat-|An|)/(Cat+|An|)  =  -0.00
                               Iterations  =   9
                                  Total H  = 1.110124e+002
                                  Total O  = 5.550622e+001

----------------------------Distribution of species----------------------------

                                                   Log       Log         Log 
   Species                 Molality    Activity  Molality  Activity     Gamma

   OH-                   1.016e-007  1.015e-007    -6.993    -6.993    -0.000
   H+                    9.865e-008  9.861e-008    -7.006    -7.006    -0.000
   H2O                   5.551e+001  1.000e+000     1.744    -0.000     0.000
Al              2.671e-008
   Al(OH)4-              2.455e-008  2.454e-008    -7.610    -7.610    -0.000
   Al(OH)3               1.284e-009  1.284e-009    -8.891    -8.891     0.000
   Al(OH)2+              8.597e-010  8.594e-010    -9.066    -9.066    -0.000
   AlOH+2                1.083e-011  1.081e-011   -10.965   -10.966    -0.001
   Al+3                  1.077e-013  1.073e-013   -12.968   -12.969    -0.002
H(0)            0.000e+000
   H2                    0.000e+000  0.000e+000   -40.099   -40.099     0.000
K               2.671e-008
   K+                    2.671e-008  2.670e-008    -7.573    -7.574    -0.000
   KOH                   9.388e-016  9.388e-016   -15.027   -15.027     0.000
O(0)            1.314e-012
   O2                    6.572e-013  6.572e-013   -12.182   -12.182     0.000
Si              8.013e-008
   H4SiO4                8.001e-008  8.001e-008    -7.097    -7.097     0.000
   H3SiO4-               1.197e-010  1.196e-010    -9.922    -9.922    -0.000
   H2SiO4-2              8.267e-017  8.253e-017   -16.083   -16.083    -0.001

------------------------------Saturation indices-------------------------------

	Phase               SI log IAP  log KT

	Al(OH)3(a)       -2.75    8.05   10.80  Al(OH)3
	Chalcedony       -3.55   -7.10   -3.55  SiO2
	Gibbsite          0.00    8.05    8.05  Al(OH)3
	H2(g)           -36.95  -40.10   -3.15  H2
	H2O(g)           -1.51   -0.00    1.51  H2O
	K-feldspar      -15.90  -36.47  -20.57  KAlSi3O8
	K-mica          -10.41    2.29   12.70  KAl3Si3O10(OH)2
	Kaolinite        -3.80    1.90    5.71  Al2Si2O5(OH)4
	Microcline      -14.68  -13.81    0.88  KAlSi3O8
	Muscovite       -10.68    2.29   12.97  KAl3Si3O10(OH)2
	O2(g)            -9.29  -12.18   -2.89  O2
	Quartz           -3.12   -7.10   -3.98  SiO2
	SiO2(a)          -4.39   -7.10   -2.71  SiO2

------------------
End of simulation.
------------------

------------------------------------
Reading input data for simulation 3.
------------------------------------

	TITLE Example 6A2.--Find amount of k-spar dissolved to 
	                    reach kaolinite saturation.
	USE solution 1
	EQUILIBRIUM_PHASES 1
	        Gibbsite        0.0     0.0
	        Kaolinite       0.0     KAlSi3O8        10.0
	        Muscovite       0.0     0.0
	        Microcline      0.0     0.0
	END
-----
TITLE
-----

 Example 6A2.--Find amount of k-spar dissolved to 
                    reach kaolinite saturation.

-----------------------------------------
Beginning of batch-reaction calculations.
-----------------------------------------

Reaction step 1.

Using solution 1.	PURE WATER
Using pure phase assemblage 1.	

-------------------------------Phase assemblage--------------------------------

                                                      Moles in assemblage
Phase                  SI log IAP  log KT      Initial       Final       Delta

Gibbsite             0.00    8.05    8.05   0.000e+000  1.782e-006  1.782e-006
Kaolinite           -0.00    5.71    5.71
	 KAlSi3O8           is reactant     1.000e+001  1.000e+001 -2.179e-006
Microcline          -5.86   -4.99    0.88   0.000e+000           0  0.000e+000
Muscovite           -1.86   11.11   12.97   0.000e+000           0  0.000e+000

-----------------------------Solution composition------------------------------

	Elements           Molality       Moles

	Al               3.968e-007  3.968e-007
	K                2.179e-006  2.179e-006
	Si               6.536e-006  6.536e-006

----------------------------Description of solution----------------------------

                                       pH  =   8.212      Charge balance
                                       pe  =   9.894      Adjusted to redox equilibrium
       Specific Conductance (uS/cm, 25 oC) = 0
                          Density (g/cm3)  =   0.99705
                        Activity of water  =   1.000
                           Ionic strength  =  2.185e-006
                       Mass of water (kg)  =  1.000e+000
                 Total alkalinity (eq/kg)  =  3.369e-006
                    Total carbon (mol/kg)  =  0.000e+000
                       Total CO2 (mol/kg)  =  0.000e+000
                      Temperature (deg C)  =  25.000
                  Electrical balance (eq)  = -1.876e-015
 Percent error, 100*(Cat-|An|)/(Cat+|An|)  =  -0.00
                               Iterations  =  13
                                  Total H  = 1.110124e+002
                                  Total O  = 5.550623e+001

----------------------------Distribution of species----------------------------

                                                   Log       Log         Log 
   Species                 Molality    Activity  Molality  Activity     Gamma

   OH-                   1.636e-006  1.633e-006    -5.786    -5.787    -0.001
   H+                    6.141e-009  6.131e-009    -8.212    -8.212    -0.001
   H2O                   5.551e+001  1.000e+000     1.744    -0.000     0.000
Al              3.968e-007
   Al(OH)4-              3.955e-007  3.948e-007    -6.403    -6.404    -0.001
   Al(OH)3               1.284e-009  1.284e-009    -8.891    -8.891     0.000
   Al(OH)2+              5.352e-011  5.343e-011   -10.271   -10.272    -0.001
   AlOH+2                4.208e-014  4.179e-014   -13.376   -13.379    -0.003
   Al+3                  2.620e-017  2.579e-017   -16.582   -16.588    -0.007
H(0)            8.674e-040
   H2                    4.337e-040  4.337e-040   -39.363   -39.363     0.000
K               2.179e-006
   K+                    2.179e-006  2.175e-006    -5.662    -5.663    -0.001
   KOH                   1.230e-012  1.230e-012   -11.910   -11.910     0.000
O(0)            4.433e-014
   O2                    2.216e-014  2.216e-014   -13.654   -13.654     0.000
Si              6.536e-006
   H4SiO4                6.383e-006  6.383e-006    -5.195    -5.195     0.000
   H3SiO4-               1.538e-007  1.535e-007    -6.813    -6.814    -0.001
   H2SiO4-2              1.715e-012  1.703e-012   -11.766   -11.769    -0.003

------------------------------Saturation indices-------------------------------

	Phase               SI log IAP  log KT

	Al(OH)3(a)       -2.75    8.05   10.80  Al(OH)3
	Chalcedony       -1.64   -5.20   -3.55  SiO2
	Gibbsite          0.00    8.05    8.05  Al(OH)3
	H2(g)           -36.21  -39.36   -3.15  H2
	H2O(g)           -1.51   -0.00    1.51  H2O
	K-feldspar       -7.08  -27.65  -20.57  KAlSi3O8
	K-mica           -1.59   11.11   12.70  KAl3Si3O10(OH)2
	Kaolinite        -0.00    5.71    5.71  Al2Si2O5(OH)4
	Microcline       -5.86   -4.99    0.88  KAlSi3O8
	Muscovite        -1.86   11.11   12.97  KAl3Si3O10(OH)2
	O2(g)           -10.76  -13.65   -2.89  O2
	Quartz           -1.21   -5.20   -3.98  SiO2
	SiO2(a)          -2.48   -5.20   -2.71  SiO2

------------------
End of simulation.
------------------

------------------------------------
Reading input data for simulation 4.
------------------------------------

	TITLE Example 6A3.--Find amount of k-spar dissolved to 
	                    reach muscovite saturation.
	USE solution 1
	EQUILIBRIUM_PHASES 1
	        Gibbsite        0.0     0.0
	        Kaolinite       0.0     0.0
	        Muscovite       0.0     KAlSi3O8        10.0
	        Microcline      0.0     0.0
	END
-----
TITLE
-----

 Example 6A3.--Find amount of k-spar dissolved to 
                    reach muscovite saturation.

-----------------------------------------
Beginning of batch-reaction calculations.
-----------------------------------------

Reaction step 1.

Using solution 1.	PURE WATER
Using pure phase assemblage 1.	

-------------------------------Phase assemblage--------------------------------

                                                      Moles in assemblage
Phase                  SI log IAP  log KT      Initial       Final       Delta

Gibbsite            -0.73    7.32    8.05   0.000e+000           0  0.000e+000
Kaolinite           -0.00    5.71    5.71   0.000e+000  9.715e-006  9.715e-006
Microcline          -2.55   -1.67    0.88   0.000e+000           0  0.000e+000
Muscovite           -0.00   12.97   12.97
	 KAlSi3O8           is reactant     1.000e+001  1.000e+001 -2.001e-005

-----------------------------Solution composition------------------------------

	Elements           Molality       Moles

	Al               5.851e-007  5.851e-007
	K                2.001e-005  2.001e-005
	Si               4.062e-005  4.061e-005

----------------------------Description of solution----------------------------

                                       pH  =   9.109      Charge balance
                                       pe  =   9.063      Adjusted to redox equilibrium
       Specific Conductance (uS/cm, 25 oC) = 4
                          Density (g/cm3)  =   0.99705
                        Activity of water  =   1.000
                           Ionic strength  =  2.002e-005
                       Mass of water (kg)  =  1.000e+000
                 Total alkalinity (eq/kg)  =  2.177e-005
                    Total carbon (mol/kg)  =  0.000e+000
                       Total CO2 (mol/kg)  =  0.000e+000
                      Temperature (deg C)  =  25.000
                  Electrical balance (eq)  =  2.710e-015
 Percent error, 100*(Cat-|An|)/(Cat+|An|)  =   0.00
                               Iterations  =  13
                                  Total H  = 1.110124e+002
                                  Total O  = 5.550629e+001

----------------------------Distribution of species----------------------------

                                                   Log       Log         Log 
   Species                 Molality    Activity  Molality  Activity     Gamma

   OH-                   1.293e-005  1.286e-005    -4.888    -4.891    -0.002
   H+                    7.822e-010  7.782e-010    -9.107    -9.109    -0.002
   H2O                   5.551e+001  1.000e+000     1.744    -0.000     0.000
Al              5.851e-007
   Al(OH)4-              5.849e-007  5.818e-007    -6.233    -6.235    -0.002
   Al(OH)3               2.402e-010  2.402e-010    -9.619    -9.619     0.000
   Al(OH)2+              1.275e-012  1.269e-012   -11.894   -11.897    -0.002
   AlOH+2                1.286e-016  1.260e-016   -15.891   -15.900    -0.009
   Al+3                  1.034e-020  9.870e-021   -19.985   -20.006    -0.020
H(0)            6.411e-040
   H2                    3.206e-040  3.206e-040   -39.494   -39.494     0.000
K               2.001e-005
   K+                    2.001e-005  1.991e-005    -4.699    -4.701    -0.002
   KOH                   8.871e-011  8.872e-011   -10.052   -10.052     0.000
O(0)            8.113e-014
   O2                    4.057e-014  4.057e-014   -13.392   -13.392     0.000
Si              4.062e-005
   H4SiO4                3.412e-005  3.412e-005    -4.467    -4.467     0.000
   H3SiO4-               6.498e-006  6.464e-006    -5.187    -5.189    -0.002
   H2SiO4-2              5.770e-010  5.651e-010    -9.239    -9.248    -0.009

------------------------------Saturation indices-------------------------------

	Phase               SI log IAP  log KT

	Al(OH)3(a)       -3.48    7.32   10.80  Al(OH)3
	Chalcedony       -0.92   -4.47   -3.55  SiO2
	Gibbsite         -0.73    7.32    8.05  Al(OH)3
	H2(g)           -36.34  -39.49   -3.15  H2
	H2O(g)           -1.51   -0.00    1.51  H2O
	K-feldspar       -3.76  -24.34  -20.57  KAlSi3O8
	K-mica            0.27   12.97   12.70  KAl3Si3O10(OH)2
	Kaolinite        -0.00    5.71    5.71  Al2Si2O5(OH)4
	Microcline       -2.55   -1.67    0.88  KAlSi3O8
	Muscovite        -0.00   12.97   12.97  KAl3Si3O10(OH)2
	O2(g)           -10.50  -13.39   -2.89  O2
	Quartz           -0.49   -4.47   -3.98  SiO2
	SiO2(a)          -1.76   -4.47   -2.71  SiO2

------------------
End of simulation.
------------------

------------------------------------
Reading input data for simulation 5.
------------------------------------

	TITLE Example 6A4.--Find amount of k-spar dissolved to 
	                    reach k-spar saturation.
	USE solution 1
	EQUILIBRIUM_PHASES 1
	        Gibbsite        0.0     0.0
	        Kaolinite       0.0     0.0
	        Muscovite       0.0     0.0
	        Microcline      0.0     10.0
	END
-----
TITLE
-----

 Example 6A4.--Find amount of k-spar dissolved to 
                    reach k-spar saturation.

-----------------------------------------
Beginning of batch-reaction calculations.
-----------------------------------------

Reaction step 1.

Using solution 1.	PURE WATER
Using pure phase assemblage 1.	

-------------------------------Phase assemblage--------------------------------

                                                      Moles in assemblage
Phase                  SI log IAP  log KT      Initial       Final       Delta

Gibbsite            -2.00    6.05    8.05   0.000e+000           0  0.000e+000
Kaolinite           -0.72    4.99    5.71   0.000e+000           0  0.000e+000
Microcline          -0.00    0.87    0.88   1.000e+001  1.000e+001 -1.909e-004
Muscovite           -0.00   12.97   12.97   0.000e+000  6.361e-005  6.361e-005

-----------------------------Solution composition------------------------------

	Elements           Molality       Moles

	Al               5.990e-008  5.989e-008
	K                1.273e-004  1.273e-004
	Si               3.818e-004  3.818e-004

----------------------------Description of solution----------------------------

                                       pH  =   9.389      Charge balance
                                       pe  =   8.719      Adjusted to redox equilibrium
       Specific Conductance (uS/cm, 25 oC) = 14
                          Density (g/cm3)  =   0.99705
                        Activity of water  =   1.000
                           Ionic strength  =  1.273e-004
                       Mass of water (kg)  =  1.000e+000
                 Total alkalinity (eq/kg)  =  1.275e-004
                    Total carbon (mol/kg)  =  0.000e+000
                       Total CO2 (mol/kg)  =  0.000e+000
                      Temperature (deg C)  =  25.000
                  Electrical balance (eq)  = -3.063e-014
 Percent error, 100*(Cat-|An|)/(Cat+|An|)  =  -0.00
                               Iterations  =  15
                                  Total H  = 1.110123e+002
                                  Total O  = 5.550698e+001

----------------------------Distribution of species----------------------------

                                                   Log       Log         Log 
   Species                 Molality    Activity  Molality  Activity     Gamma

   OH-                   2.486e-005  2.453e-005    -4.605    -4.610    -0.006
   H+                    4.133e-010  4.080e-010    -9.384    -9.389    -0.006
   H2O                   5.551e+001  1.000e+000     1.744    -0.000     0.000
Al              5.990e-008
   Al(OH)4-              5.988e-008  5.911e-008    -7.223    -7.228    -0.006
   Al(OH)3               1.280e-011  1.280e-011   -10.893   -10.893     0.000
   Al(OH)2+              3.590e-014  3.544e-014   -13.445   -13.451    -0.006
   AlOH+2                1.944e-018  1.845e-018   -17.711   -17.734    -0.023
   Al+3                  8.505e-023  7.579e-023   -22.070   -22.120    -0.050
H(0)            8.588e-040
   H2                    4.294e-040  4.294e-040   -39.367   -39.367     0.000
K               1.273e-004
   K+                    1.273e-004  1.256e-004    -3.895    -3.901    -0.006
   KOH                   1.067e-009  1.067e-009    -8.972    -8.972     0.000
O(0)            4.521e-014
   O2                    2.261e-014  2.261e-014   -13.646   -13.646     0.000
Si              3.818e-004
   H4SiO4                2.795e-004  2.795e-004    -3.554    -3.554     0.000
   H3SiO4-               1.023e-004  1.010e-004    -3.990    -3.996    -0.006
   H2SiO4-2              1.774e-008  1.684e-008    -7.751    -7.774    -0.023

------------------------------Saturation indices-------------------------------

	Phase               SI log IAP  log KT

	Al(OH)3(a)       -4.75    6.05   10.80  Al(OH)3
	Chalcedony       -0.00   -3.55   -3.55  SiO2
	Gibbsite         -2.00    6.05    8.05  Al(OH)3
	H2(g)           -36.22  -39.37   -3.15  H2
	H2O(g)           -1.51   -0.00    1.51  H2O
	K-feldspar       -1.22  -21.79  -20.57  KAlSi3O8
	K-mica            0.27   12.97   12.70  KAl3Si3O10(OH)2
	Kaolinite        -0.72    4.99    5.71  Al2Si2O5(OH)4
	Microcline       -0.00    0.87    0.88  KAlSi3O8
	Muscovite        -0.00   12.97   12.97  KAl3Si3O10(OH)2
	O2(g)           -10.75  -13.65   -2.89  O2
	Quartz            0.43   -3.55   -3.98  SiO2
	SiO2(a)          -0.84   -3.55   -2.71  SiO2

------------------
End of simulation.
------------------

------------------------------------
Reading input data for simulation 6.
------------------------------------

	TITLE 
	Example 6A5.--Find point with kaolinite present, 
	              but no gibbsite.
	USE solution 1
	EQUILIBRIUM_PHASES 1
	        Gibbsite        0.0     KAlSi3O8        10.0
	        Kaolinite       0.0     1.0
	END
-----
TITLE
-----

Example 6A5.--Find point with kaolinite present, 
              but no gibbsite.

-----------------------------------------
Beginning of batch-reaction calculations.
-----------------------------------------

Reaction step 1.

Using solution 1.	PURE WATER
Using pure phase assemblage 1.	

-------------------------------Phase assemblage--------------------------------

                                                      Moles in assemblage
Phase                  SI log IAP  log KT      Initial       Final       Delta

Gibbsite             0.00    8.05    8.05
	 KAlSi3O8           is reactant     1.000e+001  1.000e+001 -3.023e-006
Kaolinite           -0.00    5.71    5.71   1.000e+000  1.000e+000  1.237e-006

-----------------------------Solution composition------------------------------

	Elements           Molality       Moles

	Al               5.493e-007  5.493e-007
	K                3.023e-006  3.023e-006
	Si               6.596e-006  6.596e-006

----------------------------Description of solution----------------------------

                                       pH  =   8.354      Charge balance
                                       pe  =   9.786      Adjusted to redox equilibrium
       Specific Conductance (uS/cm, 25 oC) = 0
                          Density (g/cm3)  =   0.99705
                        Activity of water  =   1.000
                           Ionic strength  =  3.028e-006
                       Mass of water (kg)  =  1.000e+000
                 Total alkalinity (eq/kg)  =  4.671e-006
                    Total carbon (mol/kg)  =  0.000e+000
                       Total CO2 (mol/kg)  =  0.000e+000
                      Temperature (deg C)  =  25.000
                  Electrical balance (eq)  = -3.020e-018
 Percent error, 100*(Cat-|An|)/(Cat+|An|)  =  -0.00
                               Iterations  =  13
                                  Total H  = 1.110124e+002
                                  Total O  = 5.550623e+001

----------------------------Distribution of species----------------------------

                                                   Log       Log         Log 
   Species                 Molality    Activity  Molality  Activity     Gamma

   OH-                   2.267e-006  2.262e-006    -5.645    -5.646    -0.001
   H+                    4.435e-009  4.426e-009    -8.353    -8.354    -0.001
   H2O                   5.551e+001  1.000e+000     1.744    -0.000     0.000
Al              5.493e-007
   Al(OH)4-              5.480e-007  5.469e-007    -6.261    -6.262    -0.001
   Al(OH)3               1.284e-009  1.284e-009    -8.891    -8.891     0.000
   Al(OH)2+              3.865e-011  3.857e-011   -10.413   -10.414    -0.001
   AlOH+2                2.196e-014  2.178e-014   -13.658   -13.662    -0.004
   Al+3                  9.882e-018  9.704e-018   -17.005   -17.013    -0.008
H(0)            7.444e-040
   H2                    3.722e-040  3.722e-040   -39.429   -39.429     0.000
K               3.023e-006
   K+                    3.023e-006  3.017e-006    -5.520    -5.520    -0.001
   KOH                   2.364e-012  2.364e-012   -11.626   -11.626     0.000
O(0)            6.019e-014
   O2                    3.009e-014  3.009e-014   -13.522   -13.522     0.000
Si              6.596e-006
   H4SiO4                6.383e-006  6.383e-006    -5.195    -5.195     0.000
   H3SiO4-               2.131e-007  2.127e-007    -6.671    -6.672    -0.001
   H2SiO4-2              3.295e-012  3.269e-012   -11.482   -11.486    -0.004

------------------------------Saturation indices-------------------------------

	Phase               SI log IAP  log KT

	Al(OH)3(a)       -2.75    8.05   10.80  Al(OH)3
	Chalcedony       -1.64   -5.20   -3.55  SiO2
	Gibbsite          0.00    8.05    8.05  Al(OH)3
	H2(g)           -36.28  -39.43   -3.15  H2
	H2O(g)           -1.51   -0.00    1.51  H2O
	K-feldspar       -6.79  -27.37  -20.57  KAlSi3O8
	K-mica           -1.31   11.40   12.70  KAl3Si3O10(OH)2
	Kaolinite        -0.00    5.71    5.71  Al2Si2O5(OH)4
	Microcline       -5.58   -4.70    0.88  KAlSi3O8
	Muscovite        -1.57   11.40   12.97  KAl3Si3O10(OH)2
	O2(g)           -10.63  -13.52   -2.89  O2
	Quartz           -1.21   -5.20   -3.98  SiO2
	SiO2(a)          -2.48   -5.20   -2.71  SiO2

------------------
End of simulation.
------------------

------------------------------------
Reading input data for simulation 7.
------------------------------------

	TITLE 
	Example 6A6.--Find point with muscovite present, 
	              but no kaolinite
	USE solution 1
	EQUILIBRIUM_PHASES 1
	        Kaolinite       0.0     KAlSi3O8        10.0
	        Muscovite       0.0     1.0
	END
-----
TITLE
-----

Example 6A6.--Find point with muscovite present, 
              but no kaolinite

-----------------------------------------
Beginning of batch-reaction calculations.
-----------------------------------------

Reaction step 1.

Using solution 1.	PURE WATER
Using pure phase assemblage 1.	

-------------------------------Phase assemblage--------------------------------

                                                      Moles in assemblage
Phase                  SI log IAP  log KT      Initial       Final       Delta

Kaolinite            0.00    5.71    5.71
	 KAlSi3O8           is reactant     1.000e+001  1.000e+001 -3.268e-005
Muscovite            0.00   12.97   12.97   1.000e+000  1.000e+000  1.079e-005

-----------------------------Solution composition------------------------------

	Elements           Molality       Moles

	Al               3.263e-007  3.263e-007
	K                2.190e-005  2.190e-005
	Si               6.569e-005  6.569e-005

----------------------------Description of solution----------------------------

                                       pH  =   9.070      Charge balance
                                       pe  =   9.071      Adjusted to redox equilibrium
       Specific Conductance (uS/cm, 25 oC) = 3
                          Density (g/cm3)  =   0.99705
                        Activity of water  =   1.000
                           Ionic strength  =  2.190e-005
                       Mass of water (kg)  =  1.000e+000
                 Total alkalinity (eq/kg)  =  2.288e-005
                    Total carbon (mol/kg)  =  0.000e+000
                       Total CO2 (mol/kg)  =  0.000e+000
                      Temperature (deg C)  =  25.000
                  Electrical balance (eq)  = -3.193e-018
 Percent error, 100*(Cat-|An|)/(Cat+|An|)  =  -0.00
                               Iterations  =  13
                                  Total H  = 1.110124e+002
                                  Total O  = 5.550635e+001

----------------------------Distribution of species----------------------------

                                                   Log       Log         Log 
   Species                 Molality    Activity  Molality  Activity     Gamma

   OH-                   1.183e-005  1.176e-005    -4.927    -4.930    -0.002
   H+                    8.558e-010  8.512e-010    -9.068    -9.070    -0.002
   H2O                   5.551e+001  1.000e+000     1.744    -0.000     0.000
Al              3.263e-007
   Al(OH)4-              3.262e-007  3.244e-007    -6.487    -6.489    -0.002
   Al(OH)3               1.465e-010  1.465e-010    -9.834    -9.834     0.000
   Al(OH)2+              8.509e-013  8.463e-013   -12.070   -12.072    -0.002
   AlOH+2                9.393e-017  9.191e-017   -16.027   -16.037    -0.009
   Al+3                  8.269e-021  7.876e-021   -20.083   -20.104    -0.021
H(0)            7.399e-040
   H2                    3.700e-040  3.700e-040   -39.432   -39.432     0.000
K               2.190e-005
   K+                    2.190e-005  2.178e-005    -4.660    -4.662    -0.002
   KOH                   8.871e-011  8.872e-011   -10.052   -10.052     0.000
O(0)            6.091e-014
   O2                    3.046e-014  3.046e-014   -13.516   -13.516     0.000
Si              6.569e-005
   H4SiO4                5.595e-005  5.595e-005    -4.252    -4.252     0.000
   H3SiO4-               9.745e-006  9.692e-006    -5.011    -5.014    -0.002
   H2SiO4-2              7.916e-010  7.745e-010    -9.101    -9.111    -0.009

------------------------------Saturation indices-------------------------------

	Phase               SI log IAP  log KT

	Al(OH)3(a)       -3.69    7.11   10.80  Al(OH)3
	Chalcedony       -0.70   -4.25   -3.55  SiO2
	Gibbsite         -0.94    7.11    8.05  Al(OH)3
	H2(g)           -36.28  -39.43   -3.15  H2
	H2O(g)           -1.51   -0.00    1.51  H2O
	K-feldspar       -3.33  -23.91  -20.57  KAlSi3O8
	K-mica            0.27   12.97   12.70  KAl3Si3O10(OH)2
	Kaolinite         0.00    5.71    5.71  Al2Si2O5(OH)4
	Microcline       -2.12   -1.24    0.88  KAlSi3O8
	Muscovite         0.00   12.97   12.97  KAl3Si3O10(OH)2
	O2(g)           -10.62  -13.52   -2.89  O2
	Quartz           -0.27   -4.25   -3.98  SiO2
	SiO2(a)          -1.54   -4.25   -2.71  SiO2

------------------
End of simulation.
------------------

------------------------------------
Reading input data for simulation 8.
------------------------------------

	TITLE Example 6B.--Path between phase boundaries.
	USE solution 1
	EQUILIBRIUM_PHASES 1
	        Kaolinite       0.0     0.0
	        Gibbsite        0.0     0.0
	        Muscovite       0.0     0.0
	        Microcline      0.0     0.0
	REACTION 1
	        Microcline      1.0
	        0.04 0.08 0.16 0.32 0.64 1.0 2.0 4.0 
	        8.0 16.0 32.0 40.0 50.0 umol
	END
-----
TITLE
-----

 Example 6B.--Path between phase boundaries.

-----------------------------------------
Beginning of batch-reaction calculations.
-----------------------------------------

Reaction step 1.

Using solution 1.	PURE WATER
Using pure phase assemblage 1.	
Using reaction 1.	

Reaction 1.	Irreversible reaction defined in simulation 8.

	 4.000e-008 moles of the following reaction have been added:

	                 Relative
	Reactant            moles

	Microcline           1.00000

	                 Relative
	Element             moles
	Al                   1.00000
	K                    1.00000
	O                    8.00000
	Si                   3.00000

-------------------------------Phase assemblage--------------------------------

                                                      Moles in assemblage
Phase                  SI log IAP  log KT      Initial       Final       Delta

Gibbsite             0.00    8.05    8.05   0.000e+000  1.187e-008  1.187e-008
Kaolinite           -3.45    2.25    5.71   0.000e+000           0  0.000e+000
Microcline         -13.96  -13.08    0.88   0.000e+000           0  0.000e+000
Muscovite           -9.95    3.02   12.97   0.000e+000           0  0.000e+000

-----------------------------Solution composition------------------------------

	Elements           Molality       Moles

	Al               2.813e-008  2.813e-008
	K                4.000e-008  4.000e-008
	Si               1.200e-007  1.200e-007

----------------------------Description of solution----------------------------

                                       pH  =   7.031      Charge balance
                                       pe  =  11.457      Adjusted to redox equilibrium
       Specific Conductance (uS/cm, 25 oC) = 0
                          Density (g/cm3)  =   0.99705
                        Activity of water  =   1.000
                           Ionic strength  =  1.339e-007
                       Mass of water (kg)  =  1.000e+000
                 Total alkalinity (eq/kg)  =  1.244e-007
                    Total carbon (mol/kg)  =  0.000e+000
                       Total CO2 (mol/kg)  =  0.000e+000
                      Temperature (deg C)  =  25.000
                  Electrical balance (eq)  = -2.760e-018
 Percent error, 100*(Cat-|An|)/(Cat+|An|)  =  -0.00
                               Iterations  =   9
                                  Total H  = 1.110124e+002
                                  Total O  = 5.550622e+001

----------------------------Distribution of species----------------------------

                                                   Log       Log         Log 
   Species                 Molality    Activity  Molality  Activity     Gamma

   OH-                   1.077e-007  1.076e-007    -6.968    -6.968    -0.000
   H+                    9.306e-008  9.302e-008    -7.031    -7.031    -0.000
   H2O                   5.551e+001  1.000e+000     1.744    -0.000     0.000
Al              2.813e-008
   Al(OH)4-              2.603e-008  2.602e-008    -7.585    -7.585    -0.000
   Al(OH)3               1.284e-009  1.284e-009    -8.891    -8.891     0.000
   Al(OH)2+              8.110e-010  8.107e-010    -9.091    -9.091    -0.000
   AlOH+2                9.638e-012  9.621e-012   -11.016   -11.017    -0.001
   Al+3                  9.044e-014  9.009e-014   -13.044   -13.045    -0.002
H(0)            0.000e+000
   H2                    0.000e+000  0.000e+000   -40.127   -40.127     0.000
K               4.000e-008
   K+                    4.000e-008  3.998e-008    -7.398    -7.398    -0.000
   KOH                   1.490e-015  1.490e-015   -14.827   -14.827     0.000
O(0)            1.494e-012
   O2                    7.470e-013  7.470e-013   -12.127   -12.127     0.000
Si              1.200e-007
   H4SiO4                1.198e-007  1.198e-007    -6.922    -6.922     0.000
   H3SiO4-               1.900e-010  1.899e-010    -9.721    -9.721    -0.000
   H2SiO4-2              1.391e-016  1.389e-016   -15.857   -15.857    -0.001

------------------------------Saturation indices-------------------------------

	Phase               SI log IAP  log KT

	Al(OH)3(a)       -2.75    8.05   10.80  Al(OH)3
	Chalcedony       -3.37   -6.92   -3.55  SiO2
	Gibbsite          0.00    8.05    8.05  Al(OH)3
	H2(g)           -36.98  -40.13   -3.15  H2
	H2O(g)           -1.51   -0.00    1.51  H2O
	K-feldspar      -15.17  -35.75  -20.57  KAlSi3O8
	K-mica           -9.69    3.02   12.70  KAl3Si3O10(OH)2
	Kaolinite        -3.45    2.25    5.71  Al2Si2O5(OH)4
	Microcline      -13.96  -13.08    0.88  KAlSi3O8
	Muscovite        -9.95    3.02   12.97  KAl3Si3O10(OH)2
	O2(g)            -9.23  -12.13   -2.89  O2
	Quartz           -2.94   -6.92   -3.98  SiO2
	SiO2(a)          -4.21   -6.92   -2.71  SiO2

Reaction step 2.

Using solution 1.	PURE WATER
Using pure phase assemblage 1.	
Using reaction 1.	

Reaction 1.	Irreversible reaction defined in simulation 8.

	 8.000e-008 moles of the following reaction have been added:

	                 Relative
	Reactant            moles

	Microcline           1.00000

	                 Relative
	Element             moles
	Al                   1.00000
	K                    1.00000
	O                    8.00000
	Si                   3.00000

-------------------------------Phase assemblage--------------------------------

                                                      Moles in assemblage
Phase                  SI log IAP  log KT      Initial       Final       Delta

Gibbsite            -0.00    8.05    8.05   0.000e+000  4.713e-008  4.713e-008
Kaolinite           -2.85    2.86    5.71   0.000e+000           0  0.000e+000
Microcline         -12.68  -11.80    0.88   0.000e+000           0  0.000e+000
Muscovite           -8.68    4.29   12.97   0.000e+000           0  0.000e+000

-----------------------------Solution composition------------------------------

	Elements           Molality       Moles

	Al               3.287e-008  3.287e-008
	K                8.000e-008  8.000e-008
	Si               2.400e-007  2.400e-007

----------------------------Description of solution----------------------------

                                       pH  =   7.106      Charge balance
                                       pe  =  11.288      Adjusted to redox equilibrium
       Specific Conductance (uS/cm, 25 oC) = 0
                          Density (g/cm3)  =   0.99705
                        Activity of water  =   1.000
                           Ionic strength  =  1.591e-007
                       Mass of water (kg)  =  1.000e+000
                 Total alkalinity (eq/kg)  =  1.786e-007
                    Total carbon (mol/kg)  =  0.000e+000
                       Total CO2 (mol/kg)  =  0.000e+000
                      Temperature (deg C)  =  25.000
                  Electrical balance (eq)  = -3.120e-018
 Percent error, 100*(Cat-|An|)/(Cat+|An|)  =  -0.00
                               Iterations  =  10
                                  Total H  = 1.110124e+002
                                  Total O  = 5.550622e+001

----------------------------Distribution of species----------------------------

                                                   Log       Log         Log 
   Species                 Molality    Activity  Molality  Activity     Gamma

   OH-                   1.278e-007  1.277e-007    -6.894    -6.894    -0.000
   H+                    7.842e-008  7.838e-008    -7.106    -7.106    -0.000
   H2O                   5.551e+001  1.000e+000     1.744    -0.000     0.000
Al              3.287e-008
   Al(OH)4-              3.089e-008  3.088e-008    -7.510    -7.510    -0.000
   Al(OH)3               1.284e-009  1.284e-009    -8.891    -8.891     0.000
   Al(OH)2+              6.834e-010  6.831e-010    -9.165    -9.166    -0.000
   AlOH+2                6.845e-012  6.832e-012   -11.165   -11.165    -0.001
   Al+3                  5.414e-014  5.391e-014   -13.267   -13.268    -0.002
H(0)            2.308e-040
   H2                    1.154e-040  1.154e-040   -39.938   -39.938     0.000
K               8.000e-008
   K+                    8.000e-008  7.996e-008    -7.097    -7.097    -0.000
   KOH                   3.537e-015  3.537e-015   -14.451   -14.451     0.000
O(0)            6.262e-013
   O2                    3.131e-013  3.131e-013   -12.504   -12.504     0.000
Si              2.400e-007
   H4SiO4                2.395e-007  2.395e-007    -6.621    -6.621     0.000
   H3SiO4-               4.508e-010  4.506e-010    -9.346    -9.346    -0.000
   H2SiO4-2              3.918e-016  3.911e-016   -15.407   -15.408    -0.001

------------------------------Saturation indices-------------------------------

	Phase               SI log IAP  log KT

	Al(OH)3(a)       -2.75    8.05   10.80  Al(OH)3
	Chalcedony       -3.07   -6.62   -3.55  SiO2
	Gibbsite         -0.00    8.05    8.05  Al(OH)3
	H2(g)           -36.79  -39.94   -3.15  H2
	H2O(g)           -1.51   -0.00    1.51  H2O
	K-feldspar      -13.90  -34.47  -20.57  KAlSi3O8
	K-mica           -8.41    4.29   12.70  KAl3Si3O10(OH)2
	Kaolinite        -2.85    2.86    5.71  Al2Si2O5(OH)4
	Microcline      -12.68  -11.80    0.88  KAlSi3O8
	Muscovite        -8.68    4.29   12.97  KAl3Si3O10(OH)2
	O2(g)            -9.61  -12.50   -2.89  O2
	Quartz           -2.64   -6.62   -3.98  SiO2
	SiO2(a)          -3.91   -6.62   -2.71  SiO2

Reaction step 3.

Using solution 1.	PURE WATER
Using pure phase assemblage 1.	
Using reaction 1.	

Reaction 1.	Irreversible reaction defined in simulation 8.

	 1.600e-007 moles of the following reaction have been added:

	                 Relative
	Reactant            moles

	Microcline           1.00000

	                 Relative
	Element             moles
	Al                   1.00000
	K                    1.00000
	O                    8.00000
	Si                   3.00000

-------------------------------Phase assemblage--------------------------------

                                                      Moles in assemblage
Phase                  SI log IAP  log KT      Initial       Final       Delta

Gibbsite            -0.00    8.05    8.05   0.000e+000  1.160e-007  1.160e-007
Kaolinite           -2.25    3.46    5.71   0.000e+000           0  0.000e+000
Microcline         -11.34  -10.47    0.88   0.000e+000           0  0.000e+000
Muscovite           -7.34    5.63   12.97   0.000e+000           0  0.000e+000

-----------------------------Solution composition------------------------------

	Elements           Molality       Moles

	Al               4.398e-008  4.398e-008
	K                1.600e-007  1.600e-007
	Si               4.800e-007  4.800e-007

----------------------------Description of solution----------------------------

                                       pH  =   7.241      Charge balance
                                       pe  =  11.241      Adjusted to redox equilibrium
       Specific Conductance (uS/cm, 25 oC) = 0
                          Density (g/cm3)  =   0.99705
                        Activity of water  =   1.000
                           Ionic strength  =  2.179e-007
                       Mass of water (kg)  =  1.000e+000
                 Total alkalinity (eq/kg)  =  2.919e-007
                    Total carbon (mol/kg)  =  0.000e+000
                       Total CO2 (mol/kg)  =  0.000e+000
                      Temperature (deg C)  =  25.000
                  Electrical balance (eq)  = -3.323e-018
 Percent error, 100*(Cat-|An|)/(Cat+|An|)  =  -0.00
                               Iterations  =  10
                                  Total H  = 1.110124e+002
                                  Total O  = 5.550622e+001

----------------------------Distribution of species----------------------------

                                                   Log       Log         Log 
   Species                 Molality    Activity  Molality  Activity     Gamma

   OH-                   1.745e-007  1.744e-007    -6.758    -6.758    -0.000
   H+                    5.743e-008  5.740e-008    -7.241    -7.241    -0.000
   H2O                   5.551e+001  1.000e+000     1.744    -0.000     0.000
Al              4.398e-008
   Al(OH)4-              4.219e-008  4.217e-008    -7.375    -7.375    -0.000
   Al(OH)3               1.284e-009  1.284e-009    -8.891    -8.891     0.000
   Al(OH)2+              5.005e-010  5.002e-010    -9.301    -9.301    -0.000
   AlOH+2                3.671e-012  3.663e-012   -11.435   -11.436    -0.001
   Al+3                  2.127e-014  2.117e-014   -13.672   -13.674    -0.002
H(0)            0.000e+000
   H2                    0.000e+000  0.000e+000   -40.113   -40.113     0.000
K               1.600e-007
   K+                    1.600e-007  1.599e-007    -6.796    -6.796    -0.000
   KOH                   9.661e-015  9.661e-015   -14.015   -14.015     0.000
O(0)            1.405e-012
   O2                    7.025e-013  7.025e-013   -12.153   -12.153     0.000
Si              4.800e-007
   H4SiO4                4.788e-007  4.788e-007    -6.320    -6.320     0.000
   H3SiO4-               1.231e-009  1.230e-009    -8.910    -8.910    -0.000
   H2SiO4-2              1.461e-015  1.458e-015   -14.835   -14.836    -0.001

------------------------------Saturation indices-------------------------------

	Phase               SI log IAP  log KT

	Al(OH)3(a)       -2.75    8.05   10.80  Al(OH)3
	Chalcedony       -2.77   -6.32   -3.55  SiO2
	Gibbsite         -0.00    8.05    8.05  Al(OH)3
	H2(g)           -36.96  -40.11   -3.15  H2
	H2O(g)           -1.51   -0.00    1.51  H2O
	K-feldspar      -12.56  -33.13  -20.57  KAlSi3O8
	K-mica           -7.07    5.63   12.70  KAl3Si3O10(OH)2
	Kaolinite        -2.25    3.46    5.71  Al2Si2O5(OH)4
	Microcline      -11.34  -10.47    0.88  KAlSi3O8
	Muscovite        -7.34    5.63   12.97  KAl3Si3O10(OH)2
	O2(g)            -9.26  -12.15   -2.89  O2
	Quartz           -2.34   -6.32   -3.98  SiO2
	SiO2(a)          -3.61   -6.32   -2.71  SiO2

Reaction step 4.

Using solution 1.	PURE WATER
Using pure phase assemblage 1.	
Using reaction 1.	

Reaction 1.	Irreversible reaction defined in simulation 8.

	 3.200e-007 moles of the following reaction have been added:

	                 Relative
	Reactant            moles

	Microcline           1.00000

	                 Relative
	Element             moles
	Al                   1.00000
	K                    1.00000
	O                    8.00000
	Si                   3.00000

-------------------------------Phase assemblage--------------------------------

                                                      Moles in assemblage
Phase                  SI log IAP  log KT      Initial       Final       Delta

Gibbsite             0.00    8.05    8.05   0.000e+000  2.499e-007  2.499e-007
Kaolinite           -1.65    4.06    5.71   0.000e+000           0  0.000e+000
Microcline          -9.93   -9.05    0.88   0.000e+000           0  0.000e+000
Muscovite           -5.93    7.04   12.97   0.000e+000           0  0.000e+000

-----------------------------Solution composition------------------------------

	Elements           Molality       Moles

	Al               7.007e-008  7.007e-008
	K                3.200e-007  3.200e-007
	Si               9.600e-007  9.600e-007

----------------------------Description of solution----------------------------

                                       pH  =   7.451      Charge balance
                                       pe  =  11.188      Adjusted to redox equilibrium
       Specific Conductance (uS/cm, 25 oC) = 0
                          Density (g/cm3)  =   0.99705
                        Activity of water  =   1.000
                           Ionic strength  =  3.557e-007
                       Mass of water (kg)  =  1.000e+000
                 Total alkalinity (eq/kg)  =  5.302e-007
                    Total carbon (mol/kg)  =  0.000e+000
                       Total CO2 (mol/kg)  =  0.000e+000
                      Temperature (deg C)  =  25.000
                  Electrical balance (eq)  = -1.281e-015
 Percent error, 100*(Cat-|An|)/(Cat+|An|)  =  -0.00
                               Iterations  =  10
                                  Total H  = 1.110124e+002
                                  Total O  = 5.550622e+001

----------------------------Distribution of species----------------------------

                                                   Log       Log         Log 
   Species                 Molality    Activity  Molality  Activity     Gamma

   OH-                   2.832e-007  2.830e-007    -6.548    -6.548    -0.000
   H+                    3.539e-008  3.537e-008    -7.451    -7.451    -0.000
   H2O                   5.551e+001  1.000e+000     1.744    -0.000     0.000
Al              7.007e-008
   Al(OH)4-              6.848e-008  6.843e-008    -7.164    -7.165    -0.000
   Al(OH)3               1.284e-009  1.284e-009    -8.891    -8.891     0.000
   Al(OH)2+              3.085e-010  3.082e-010    -9.511    -9.511    -0.000
   AlOH+2                1.395e-012  1.391e-012   -11.855   -11.857    -0.001
   Al+3                  4.984e-015  4.953e-015   -14.302   -14.305    -0.003
H(0)            0.000e+000
   H2                    0.000e+000  0.000e+000   -40.429   -40.429     0.000
K               3.200e-007
   K+                    3.200e-007  3.198e-007    -6.495    -6.495    -0.000
   KOH                   3.135e-014  3.135e-014   -13.504   -13.504     0.000
O(0)            6.000e-012
   O2                    3.000e-012  3.000e-012   -11.523   -11.523     0.000
Si              9.600e-007
   H4SiO4                9.560e-007  9.560e-007    -6.020    -6.020     0.000
   H3SiO4-               3.988e-009  3.986e-009    -8.399    -8.400    -0.000
   H2SiO4-2              7.687e-015  7.665e-015   -14.114   -14.115    -0.001

------------------------------Saturation indices-------------------------------

	Phase               SI log IAP  log KT

	Al(OH)3(a)       -2.75    8.05   10.80  Al(OH)3
	Chalcedony       -2.47   -6.02   -3.55  SiO2
	Gibbsite          0.00    8.05    8.05  Al(OH)3
	H2(g)           -37.28  -40.43   -3.15  H2
	H2O(g)           -1.51   -0.00    1.51  H2O
	K-feldspar      -11.15  -31.72  -20.57  KAlSi3O8
	K-mica           -5.66    7.04   12.70  KAl3Si3O10(OH)2
	Kaolinite        -1.65    4.06    5.71  Al2Si2O5(OH)4
	Microcline       -9.93   -9.05    0.88  KAlSi3O8
	Muscovite        -5.93    7.04   12.97  KAl3Si3O10(OH)2
	O2(g)            -8.63  -11.52   -2.89  O2
	Quartz           -2.04   -6.02   -3.98  SiO2
	SiO2(a)          -3.31   -6.02   -2.71  SiO2

Reaction step 5.

Using solution 1.	PURE WATER
Using pure phase assemblage 1.	
Using reaction 1.	

Reaction 1.	Irreversible reaction defined in simulation 8.

	 6.400e-007 moles of the following reaction have been added:

	                 Relative
	Reactant            moles

	Microcline           1.00000

	                 Relative
	Element             moles
	Al                   1.00000
	K                    1.00000
	O                    8.00000
	Si                   3.00000

-------------------------------Phase assemblage--------------------------------

                                                      Moles in assemblage
Phase                  SI log IAP  log KT      Initial       Final       Delta

Gibbsite             0.00    8.05    8.05   0.000e+000  5.130e-007  5.130e-007
Kaolinite           -1.05    4.66    5.71   0.000e+000           0  0.000e+000
Microcline          -8.47   -7.59    0.88   0.000e+000           0  0.000e+000
Muscovite           -4.46    8.51   12.97   0.000e+000           0  0.000e+000

-----------------------------Solution composition------------------------------

	Elements           Molality       Moles

	Al               1.270e-007  1.270e-007
	K                6.400e-007  6.400e-007
	Si               1.920e-006  1.920e-006

----------------------------Description of solution----------------------------

                                       pH  =   7.715      Charge balance
                                       pe  =  10.994      Adjusted to redox equilibrium
       Specific Conductance (uS/cm, 25 oC) = 0
                          Density (g/cm3)  =   0.99705
                        Activity of water  =   1.000
                           Ionic strength  =  6.595e-007
                       Mass of water (kg)  =  1.000e+000
                 Total alkalinity (eq/kg)  =  1.021e-006
                    Total carbon (mol/kg)  =  0.000e+000
                       Total CO2 (mol/kg)  =  0.000e+000
                      Temperature (deg C)  =  25.000
                  Electrical balance (eq)  = -5.096e-015
 Percent error, 100*(Cat-|An|)/(Cat+|An|)  =  -0.00
                               Iterations  =  10
                                  Total H  = 1.110124e+002
                                  Total O  = 5.550622e+001

----------------------------Distribution of species----------------------------

                                                   Log       Log         Log 
   Species                 Molality    Activity  Molality  Activity     Gamma

   OH-                   5.193e-007  5.189e-007    -6.285    -6.285    -0.000
   H+                    1.931e-008  1.929e-008    -7.714    -7.715    -0.000
   H2O                   5.551e+001  1.000e+000     1.744    -0.000     0.000
Al              1.270e-007
   Al(OH)4-              1.256e-007  1.254e-007    -6.901    -6.902    -0.000
   Al(OH)3               1.284e-009  1.284e-009    -8.891    -8.891     0.000
   Al(OH)2+              1.683e-010  1.681e-010    -9.774    -9.774    -0.000
   AlOH+2                4.155e-013  4.139e-013   -12.381   -12.383    -0.002
   Al+3                  8.109e-016  8.040e-016   -15.091   -15.095    -0.004
H(0)            0.000e+000
   H2                    0.000e+000  0.000e+000   -40.567   -40.567     0.000
K               6.400e-007
   K+                    6.400e-007  6.394e-007    -6.194    -6.194    -0.000
   KOH                   1.149e-013  1.149e-013   -12.940   -12.940     0.000
O(0)            1.135e-011
   O2                    5.673e-012  5.673e-012   -11.246   -11.246     0.000
Si              1.920e-006
   H4SiO4                1.905e-006  1.905e-006    -5.720    -5.720     0.000
   H3SiO4-               1.458e-008  1.456e-008    -7.836    -7.837    -0.000
   H2SiO4-2              5.153e-014  5.134e-014   -13.288   -13.290    -0.002

------------------------------Saturation indices-------------------------------

	Phase               SI log IAP  log KT

	Al(OH)3(a)       -2.75    8.05   10.80  Al(OH)3
	Chalcedony       -2.17   -5.72   -3.55  SiO2
	Gibbsite          0.00    8.05    8.05  Al(OH)3
	H2(g)           -37.42  -40.57   -3.15  H2
	H2O(g)           -1.51   -0.00    1.51  H2O
	K-feldspar       -9.68  -30.26  -20.57  KAlSi3O8
	K-mica           -4.20    8.51   12.70  KAl3Si3O10(OH)2
	Kaolinite        -1.05    4.66    5.71  Al2Si2O5(OH)4
	Microcline       -8.47   -7.59    0.88  KAlSi3O8
	Muscovite        -4.46    8.51   12.97  KAl3Si3O10(OH)2
	O2(g)            -8.35  -11.25   -2.89  O2
	Quartz           -1.74   -5.72   -3.98  SiO2
	SiO2(a)          -3.01   -5.72   -2.71  SiO2

Reaction step 6.

Using solution 1.	PURE WATER
Using pure phase assemblage 1.	
Using reaction 1.	

Reaction 1.	Irreversible reaction defined in simulation 8.

	 1.000e-006 moles of the following reaction have been added:

	                 Relative
	Reactant            moles

	Microcline           1.00000

	                 Relative
	Element             moles
	Al                   1.00000
	K                    1.00000
	O                    8.00000
	Si                   3.00000

-------------------------------Phase assemblage--------------------------------

                                                      Moles in assemblage
Phase                  SI log IAP  log KT      Initial       Final       Delta

Gibbsite             0.00    8.05    8.05   0.000e+000  8.081e-007  8.081e-007
Kaolinite           -0.67    5.04    5.71   0.000e+000           0  0.000e+000
Microcline          -7.51   -6.64    0.88   0.000e+000           0  0.000e+000
Muscovite           -3.51    9.46   12.97   0.000e+000           0  0.000e+000

-----------------------------Solution composition------------------------------

	Elements           Molality       Moles

	Al               1.919e-007  1.919e-007
	K                1.000e-006  1.000e-006
	Si               3.000e-006  3.000e-006

----------------------------Description of solution----------------------------

                                       pH  =   7.896      Charge balance
                                       pe  =  10.790      Adjusted to redox equilibrium
       Specific Conductance (uS/cm, 25 oC) = 0
                          Density (g/cm3)  =   0.99705
                        Activity of water  =   1.000
                           Ionic strength  =  1.013e-006
                       Mass of water (kg)  =  1.000e+000
                 Total alkalinity (eq/kg)  =  1.576e-006
                    Total carbon (mol/kg)  =  0.000e+000
                       Total CO2 (mol/kg)  =  0.000e+000
                      Temperature (deg C)  =  25.000
                  Electrical balance (eq)  = -2.467e-017
 Percent error, 100*(Cat-|An|)/(Cat+|An|)  =  -0.00
                               Iterations  =  11
                                  Total H  = 1.110124e+002
                                  Total O  = 5.550622e+001

----------------------------Distribution of species----------------------------

                                                   Log       Log         Log 
   Species                 Molality    Activity  Molality  Activity     Gamma

   OH-                   7.879e-007  7.870e-007    -6.104    -6.104    -0.001
   H+                    1.274e-008  1.272e-008    -7.895    -7.896    -0.001
   H2O                   5.551e+001  1.000e+000     1.744    -0.000     0.000
Al              1.919e-007
   Al(OH)4-              1.905e-007  1.903e-007    -6.720    -6.721    -0.001
   Al(OH)3               1.284e-009  1.284e-009    -8.891    -8.891     0.000
   Al(OH)2+              1.110e-010  1.109e-010    -9.955    -9.955    -0.001
   AlOH+2                1.808e-013  1.799e-013   -12.743   -12.745    -0.002
   Al+3                  2.328e-016  2.304e-016   -15.633   -15.638    -0.005
H(0)            0.000e+000
   H2                    0.000e+000  0.000e+000   -40.520   -40.520     0.000
K               1.000e-006
   K+                    1.000e-006  9.988e-007    -6.000    -6.001    -0.001
   KOH                   2.723e-013  2.723e-013   -12.565   -12.565     0.000
O(0)            9.161e-012
   O2                    4.580e-012  4.580e-012   -11.339   -11.339     0.000
Si              3.000e-006
   H4SiO4                2.966e-006  2.966e-006    -5.528    -5.528     0.000
   H3SiO4-               3.442e-008  3.438e-008    -7.463    -7.464    -0.001
   H2SiO4-2              1.847e-013  1.838e-013   -12.734   -12.736    -0.002

------------------------------Saturation indices-------------------------------

	Phase               SI log IAP  log KT

	Al(OH)3(a)       -2.75    8.05   10.80  Al(OH)3
	Chalcedony       -1.98   -5.53   -3.55  SiO2
	Gibbsite          0.00    8.05    8.05  Al(OH)3
	H2(g)           -37.37  -40.52   -3.15  H2
	H2O(g)           -1.51   -0.00    1.51  H2O
	K-feldspar       -8.73  -29.30  -20.57  KAlSi3O8
	K-mica           -3.24    9.46   12.70  KAl3Si3O10(OH)2
	Kaolinite        -0.67    5.04    5.71  Al2Si2O5(OH)4
	Microcline       -7.51   -6.64    0.88  KAlSi3O8
	Muscovite        -3.51    9.46   12.97  KAl3Si3O10(OH)2
	O2(g)            -8.45  -11.34   -2.89  O2
	Quartz           -1.55   -5.53   -3.98  SiO2
	SiO2(a)          -2.82   -5.53   -2.71  SiO2

Reaction step 7.

Using solution 1.	PURE WATER
Using pure phase assemblage 1.	
Using reaction 1.	

Reaction 1.	Irreversible reaction defined in simulation 8.

	 2.000e-006 moles of the following reaction have been added:

	                 Relative
	Reactant            moles

	Microcline           1.00000

	                 Relative
	Element             moles
	Al                   1.00000
	K                    1.00000
	O                    8.00000
	Si                   3.00000

-------------------------------Phase assemblage--------------------------------

                                                      Moles in assemblage
Phase                  SI log IAP  log KT      Initial       Final       Delta

Gibbsite             0.00    8.05    8.05   0.000e+000  1.633e-006  1.633e-006
Kaolinite           -0.07    5.64    5.71   0.000e+000           0  0.000e+000
Microcline          -6.04   -5.17    0.88   0.000e+000           0  0.000e+000
Muscovite           -2.04   10.93   12.97   0.000e+000           0  0.000e+000

-----------------------------Solution composition------------------------------

	Elements           Molality       Moles

	Al               3.666e-007  3.666e-007
	K                2.000e-006  2.000e-006
	Si               6.000e-006  6.000e-006

----------------------------Description of solution----------------------------

                                       pH  =   8.178      Charge balance
                                       pe  =  10.425      Adjusted to redox equilibrium
       Specific Conductance (uS/cm, 25 oC) = 0
                          Density (g/cm3)  =   0.99705
                        Activity of water  =   1.000
                           Ionic strength  =  2.007e-006
                       Mass of water (kg)  =  1.000e+000
                 Total alkalinity (eq/kg)  =  3.100e-006
                    Total carbon (mol/kg)  =  0.000e+000
                       Total CO2 (mol/kg)  =  0.000e+000
                      Temperature (deg C)  =  25.000
                  Electrical balance (eq)  = -3.132e-018
 Percent error, 100*(Cat-|An|)/(Cat+|An|)  =  -0.00
                               Iterations  =  12
                                  Total H  = 1.110124e+002
                                  Total O  = 5.550623e+001

----------------------------Distribution of species----------------------------

                                                   Log       Log         Log 
   Species                 Molality    Activity  Molality  Activity     Gamma

   OH-                   1.511e-006  1.508e-006    -5.821    -5.822    -0.001
   H+                    6.648e-009  6.637e-009    -8.177    -8.178    -0.001
   H2O                   5.551e+001  1.000e+000     1.744    -0.000     0.000
Al              3.666e-007
   Al(OH)4-              3.653e-007  3.647e-007    -6.437    -6.438    -0.001
   Al(OH)3               1.284e-009  1.284e-009    -8.891    -8.891     0.000
   Al(OH)2+              5.794e-011  5.784e-011   -10.237   -10.238    -0.001
   AlOH+2                4.931e-014  4.898e-014   -13.307   -13.310    -0.003
   Al+3                  3.322e-017  3.273e-017   -16.479   -16.485    -0.006
H(0)            0.000e+000
   H2                    0.000e+000  0.000e+000   -40.357   -40.357     0.000
K               2.000e-006
   K+                    2.000e-006  1.997e-006    -5.699    -5.700    -0.001
   KOH                   1.043e-012  1.043e-012   -11.982   -11.982     0.000
O(0)            4.307e-012
   O2                    2.154e-012  2.154e-012   -11.667   -11.667     0.000
Si              6.000e-006
   H4SiO4                5.869e-006  5.869e-006    -5.231    -5.231     0.000
   H3SiO4-               1.306e-007  1.304e-007    -6.884    -6.885    -0.001
   H2SiO4-2              1.345e-012  1.336e-012   -11.871   -11.874    -0.003

------------------------------Saturation indices-------------------------------

	Phase               SI log IAP  log KT

	Al(OH)3(a)       -2.75    8.05   10.80  Al(OH)3
	Chalcedony       -1.68   -5.23   -3.55  SiO2
	Gibbsite          0.00    8.05    8.05  Al(OH)3
	H2(g)           -37.21  -40.36   -3.15  H2
	H2O(g)           -1.51   -0.00    1.51  H2O
	K-feldspar       -7.26  -27.83  -20.57  KAlSi3O8
	K-mica           -1.77   10.93   12.70  KAl3Si3O10(OH)2
	Kaolinite        -0.07    5.64    5.71  Al2Si2O5(OH)4
	Microcline       -6.04   -5.17    0.88  KAlSi3O8
	Muscovite        -2.04   10.93   12.97  KAl3Si3O10(OH)2
	O2(g)            -8.77  -11.67   -2.89  O2
	Quartz           -1.25   -5.23   -3.98  SiO2
	SiO2(a)          -2.52   -5.23   -2.71  SiO2

Reaction step 8.

Using solution 1.	PURE WATER
Using pure phase assemblage 1.	
Using reaction 1.	

Reaction 1.	Irreversible reaction defined in simulation 8.

	 4.000e-006 moles of the following reaction have been added:

	                 Relative
	Reactant            moles

	Microcline           1.00000

	                 Relative
	Element             moles
	Al                   1.00000
	K                    1.00000
	O                    8.00000
	Si                   3.00000

-------------------------------Phase assemblage--------------------------------

                                                      Moles in assemblage
Phase                  SI log IAP  log KT      Initial       Final       Delta

Gibbsite            -0.11    7.94    8.05   0.000e+000           0  0.000e+000
Kaolinite            0.00    5.71    5.71   0.000e+000  1.712e-006  1.712e-006
Microcline          -5.11   -4.23    0.88   0.000e+000           0  0.000e+000
Muscovite           -1.32   11.65   12.97   0.000e+000           0  0.000e+000

-----------------------------Solution composition------------------------------

	Elements           Molality       Moles

	Al               5.761e-007  5.761e-007
	K                4.000e-006  4.000e-006
	Si               8.576e-006  8.576e-006

----------------------------Description of solution----------------------------

                                       pH  =   8.484      Charge balance
                                       pe  =   9.432      Adjusted to redox equilibrium
       Specific Conductance (uS/cm, 25 oC) = 0
                          Density (g/cm3)  =   0.99705
                        Activity of water  =   1.000
                           Ionic strength  =  4.003e-006
                       Mass of water (kg)  =  1.000e+000
                 Total alkalinity (eq/kg)  =  5.728e-006
                    Total carbon (mol/kg)  =  0.000e+000
                       Total CO2 (mol/kg)  =  0.000e+000
                      Temperature (deg C)  =  25.000
                  Electrical balance (eq)  = -4.993e-018
 Percent error, 100*(Cat-|An|)/(Cat+|An|)  =  -0.00
                               Iterations  =  12
                                  Total H  = 1.110124e+002
                                  Total O  = 5.550623e+001

----------------------------Distribution of species----------------------------

                                                   Log       Log         Log 
   Species                 Molality    Activity  Molality  Activity     Gamma

   OH-                   3.059e-006  3.051e-006    -5.514    -5.516    -0.001
   H+                    3.288e-009  3.281e-009    -8.483    -8.484    -0.001
   H2O                   5.551e+001  1.000e+000     1.744    -0.000     0.000
Al              5.761e-007
   Al(OH)4-              5.751e-007  5.737e-007    -6.240    -6.241    -0.001
   Al(OH)3               9.987e-010  9.987e-010    -9.001    -9.001     0.000
   Al(OH)2+              2.229e-011  2.224e-011   -10.652   -10.653    -0.001
   AlOH+2                9.396e-015  9.309e-015   -14.027   -14.031    -0.004
   Al+3                  3.140e-018  3.074e-018   -17.503   -17.512    -0.009
H(0)            2.082e-039
   H2                    1.041e-039  1.041e-039   -38.983   -38.983     0.000
K               4.000e-006
   K+                    4.000e-006  3.991e-006    -5.398    -5.399    -0.001
   KOH                   4.218e-012  4.218e-012   -11.375   -11.375     0.000
O(0)            7.695e-015
   O2                    3.847e-015  3.847e-015   -14.415   -14.415     0.000
Si              8.576e-006
   H4SiO4                8.206e-006  8.206e-006    -5.086    -5.086     0.000
   H3SiO4-               3.697e-007  3.688e-007    -6.432    -6.433    -0.001
   H2SiO4-2              7.719e-012  7.647e-012   -11.112   -11.116    -0.004

------------------------------Saturation indices-------------------------------

	Phase               SI log IAP  log KT

	Al(OH)3(a)       -2.86    7.94   10.80  Al(OH)3
	Chalcedony       -1.53   -5.09   -3.55  SiO2
	Gibbsite         -0.11    7.94    8.05  Al(OH)3
	H2(g)           -35.83  -38.98   -3.15  H2
	H2O(g)           -1.51   -0.00    1.51  H2O
	K-feldspar       -6.32  -26.90  -20.57  KAlSi3O8
	K-mica           -1.06   11.65   12.70  KAl3Si3O10(OH)2
	Kaolinite         0.00    5.71    5.71  Al2Si2O5(OH)4
	Microcline       -5.11   -4.23    0.88  KAlSi3O8
	Muscovite        -1.32   11.65   12.97  KAl3Si3O10(OH)2
	O2(g)           -11.52  -14.41   -2.89  O2
	Quartz           -1.11   -5.09   -3.98  SiO2
	SiO2(a)          -2.37   -5.09   -2.71  SiO2

Reaction step 9.

Using solution 1.	PURE WATER
Using pure phase assemblage 1.	
Using reaction 1.	

Reaction 1.	Irreversible reaction defined in simulation 8.

	 8.000e-006 moles of the following reaction have been added:

	                 Relative
	Reactant            moles

	Microcline           1.00000

	                 Relative
	Element             moles
	Al                   1.00000
	K                    1.00000
	O                    8.00000
	Si                   3.00000

-------------------------------Phase assemblage--------------------------------

                                                      Moles in assemblage
Phase                  SI log IAP  log KT      Initial       Final       Delta

Gibbsite            -0.38    7.67    8.05   0.000e+000           0  0.000e+000
Kaolinite            0.00    5.71    5.71   0.000e+000  3.695e-006  3.695e-006
Microcline          -3.97   -3.10    0.88   0.000e+000           0  0.000e+000
Muscovite           -0.73   12.24   12.97   0.000e+000           0  0.000e+000

-----------------------------Solution composition------------------------------

	Elements           Molality       Moles

	Al               6.110e-007  6.110e-007
	K                8.000e-006  8.000e-006
	Si               1.661e-005  1.661e-005

----------------------------Description of solution----------------------------

                                       pH  =   8.779      Charge balance
                                       pe  =   9.596      Adjusted to redox equilibrium
       Specific Conductance (uS/cm, 25 oC) = 1
                          Density (g/cm3)  =   0.99705
                        Activity of water  =   1.000
                           Ionic strength  =  8.002e-006
                       Mass of water (kg)  =  1.000e+000
                 Total alkalinity (eq/kg)  =  9.833e-006
                    Total carbon (mol/kg)  =  0.000e+000
                       Total CO2 (mol/kg)  =  0.000e+000
                      Temperature (deg C)  =  25.000
                  Electrical balance (eq)  = -6.949e-016
 Percent error, 100*(Cat-|An|)/(Cat+|An|)  =  -0.00
                               Iterations  =  12
                                  Total H  = 1.110124e+002
                                  Total O  = 5.550625e+001

----------------------------Distribution of species----------------------------

                                                   Log       Log         Log 
   Species                 Molality    Activity  Molality  Activity     Gamma

   OH-                   6.035e-006  6.015e-006    -5.219    -5.221    -0.001
   H+                    1.670e-009  1.664e-009    -8.777    -8.779    -0.001
   H2O                   5.551e+001  1.000e+000     1.744    -0.000     0.000
Al              6.110e-007
   Al(OH)4-              6.105e-007  6.084e-007    -6.214    -6.216    -0.001
   Al(OH)3               5.373e-010  5.373e-010    -9.270    -9.270     0.000
   Al(OH)2+              6.089e-012  6.069e-012   -11.215   -11.217    -0.001
   AlOH+2                1.306e-015  1.289e-015   -14.884   -14.890    -0.006
   Al+3                  2.224e-019  2.159e-019   -18.653   -18.666    -0.013
H(0)            2.522e-040
   H2                    1.261e-040  1.261e-040   -39.899   -39.899     0.000
K               8.000e-006
   K+                    8.000e-006  7.974e-006    -5.097    -5.098    -0.001
   KOH                   1.661e-011  1.661e-011   -10.780   -10.780     0.000
O(0)            5.243e-013
   O2                    2.622e-013  2.622e-013   -12.581   -12.581     0.000
Si              1.661e-005
   H4SiO4                1.525e-005  1.525e-005    -4.817    -4.817     0.000
   H3SiO4-               1.356e-006  1.352e-006    -5.868    -5.869    -0.001
   H2SiO4-2              5.598e-011  5.524e-011   -10.252   -10.258    -0.006

------------------------------Saturation indices-------------------------------

	Phase               SI log IAP  log KT

	Al(OH)3(a)       -3.13    7.67   10.80  Al(OH)3
	Chalcedony       -1.27   -4.82   -3.55  SiO2
	Gibbsite         -0.38    7.67    8.05  Al(OH)3
	H2(g)           -36.75  -39.90   -3.15  H2
	H2O(g)           -1.51   -0.00    1.51  H2O
	K-feldspar       -5.19  -25.76  -20.57  KAlSi3O8
	K-mica           -0.46   12.24   12.70  KAl3Si3O10(OH)2
	Kaolinite         0.00    5.71    5.71  Al2Si2O5(OH)4
	Microcline       -3.97   -3.10    0.88  KAlSi3O8
	Muscovite        -0.73   12.24   12.97  KAl3Si3O10(OH)2
	O2(g)            -9.69  -12.58   -2.89  O2
	Quartz           -0.84   -4.82   -3.98  SiO2
	SiO2(a)          -2.10   -4.82   -2.71  SiO2

Reaction step 10.

Using solution 1.	PURE WATER
Using pure phase assemblage 1.	
Using reaction 1.	

Reaction 1.	Irreversible reaction defined in simulation 8.

	 1.600e-005 moles of the following reaction have been added:

	                 Relative
	Reactant            moles

	Microcline           1.00000

	                 Relative
	Element             moles
	Al                   1.00000
	K                    1.00000
	O                    8.00000
	Si                   3.00000

-------------------------------Phase assemblage--------------------------------

                                                      Moles in assemblage
Phase                  SI log IAP  log KT      Initial       Final       Delta

Gibbsite            -0.64    7.41    8.05   0.000e+000           0  0.000e+000
Kaolinite           -0.00    5.71    5.71   0.000e+000  7.701e-006  7.701e-006
Microcline          -2.89   -2.01    0.88   0.000e+000           0  0.000e+000
Muscovite           -0.17   12.80   12.97   0.000e+000           0  0.000e+000

-----------------------------Solution composition------------------------------

	Elements           Molality       Moles

	Al               5.987e-007  5.987e-007
	K                1.600e-005  1.600e-005
	Si               3.260e-005  3.260e-005

----------------------------Description of solution----------------------------

                                       pH  =   9.035      Charge balance
                                       pe  =   8.801      Adjusted to redox equilibrium
       Specific Conductance (uS/cm, 25 oC) = 3
                          Density (g/cm3)  =   0.99705
                        Activity of water  =   1.000
                           Ionic strength  =  1.600e-005
                       Mass of water (kg)  =  1.000e+000
                 Total alkalinity (eq/kg)  =  1.780e-005
                    Total carbon (mol/kg)  =  0.000e+000
                       Total CO2 (mol/kg)  =  0.000e+000
                      Temperature (deg C)  =  25.000
                  Electrical balance (eq)  =  1.395e-016
 Percent error, 100*(Cat-|An|)/(Cat+|An|)  =   0.00
                               Iterations  =  14
                                  Total H  = 1.110124e+002
                                  Total O  = 5.550628e+001

----------------------------Distribution of species----------------------------

                                                   Log       Log         Log 
   Species                 Molality    Activity  Molality  Activity     Gamma

   OH-                   1.089e-005  1.084e-005    -4.963    -4.965    -0.002
   H+                    9.275e-010  9.232e-010    -9.033    -9.035    -0.002
   H2O                   5.551e+001  1.000e+000     1.744    -0.000     0.000
Al              5.987e-007
   Al(OH)4-              5.984e-007  5.956e-007    -6.223    -6.225    -0.002
   Al(OH)3               2.918e-010  2.918e-010    -9.535    -9.535     0.000
   Al(OH)2+              1.837e-012  1.828e-012   -11.736   -11.738    -0.002
   AlOH+2                2.194e-016  2.153e-016   -15.659   -15.667    -0.008
   Al+3                  2.087e-020  2.001e-020   -19.681   -19.699    -0.018
H(0)            3.011e-039
   H2                    1.505e-039  1.505e-039   -38.822   -38.822     0.000
K               1.600e-005
   K+                    1.600e-005  1.593e-005    -4.796    -4.798    -0.002
   KOH                   5.981e-011  5.981e-011   -10.223   -10.223     0.000
O(0)            3.679e-015
   O2                    1.840e-015  1.840e-015   -14.735   -14.735     0.000
Si              3.260e-005
   H4SiO4                2.809e-005  2.809e-005    -4.551    -4.551     0.000
   H3SiO4-               4.508e-006  4.487e-006    -5.346    -5.348    -0.002
   H2SiO4-2              3.368e-010  3.306e-010    -9.473    -9.481    -0.008

------------------------------Saturation indices-------------------------------

	Phase               SI log IAP  log KT

	Al(OH)3(a)       -3.39    7.41   10.80  Al(OH)3
	Chalcedony       -1.00   -4.55   -3.55  SiO2
	Gibbsite         -0.64    7.41    8.05  Al(OH)3
	H2(g)           -35.67  -38.82   -3.15  H2
	H2O(g)           -1.51   -0.00    1.51  H2O
	K-feldspar       -4.10  -24.68  -20.57  KAlSi3O8
	K-mica            0.10   12.80   12.70  KAl3Si3O10(OH)2
	Kaolinite        -0.00    5.71    5.71  Al2Si2O5(OH)4
	Microcline       -2.89   -2.01    0.88  KAlSi3O8
	Muscovite        -0.17   12.80   12.97  KAl3Si3O10(OH)2
	O2(g)           -11.84  -14.74   -2.89  O2
	Quartz           -0.57   -4.55   -3.98  SiO2
	SiO2(a)          -1.84   -4.55   -2.71  SiO2

Reaction step 11.

Using solution 1.	PURE WATER
Using pure phase assemblage 1.	
Using reaction 1.	

Reaction 1.	Irreversible reaction defined in simulation 8.

	 3.200e-005 moles of the following reaction have been added:

	                 Relative
	Reactant            moles

	Microcline           1.00000

	                 Relative
[...]
H(0)            2.129e-039
   H2                    1.064e-039  1.064e-039   -38.973   -38.973     0.000
K               2.180e-005
   K+                    2.180e-005  2.168e-005    -4.662    -4.664    -0.002
   KOH                   8.871e-011  8.872e-011   -10.052   -10.052     0.000
O(0)            7.360e-015
   O2                    3.680e-015  3.680e-015   -14.434   -14.434     0.000
Si              6.434e-005
   H4SiO4                5.475e-005  5.475e-005    -4.262    -4.262     0.000
   H3SiO4-               9.581e-006  9.529e-006    -5.019    -5.021    -0.002
   H2SiO4-2              7.819e-010  7.650e-010    -9.107    -9.116    -0.009

------------------------------Saturation indices-------------------------------

	Phase               SI log IAP  log KT

	Al(OH)3(a)       -3.68    7.12   10.80  Al(OH)3
	Chalcedony       -0.71   -4.26   -3.55  SiO2
	Gibbsite         -0.93    7.12    8.05  Al(OH)3
	H2(g)           -35.82  -38.97   -3.15  H2
	H2O(g)           -1.51   -0.00    1.51  H2O
	K-feldspar       -3.35  -23.93  -20.57  KAlSi3O8
	K-mica            0.27   12.97   12.70  KAl3Si3O10(OH)2
	Kaolinite         0.00    5.71    5.71  Al2Si2O5(OH)4
	Microcline       -2.14   -1.26    0.88  KAlSi3O8
	Muscovite         0.00   12.97   12.97  KAl3Si3O10(OH)2
	O2(g)           -11.54  -14.43   -2.89  O2
	Quartz           -0.28   -4.26   -3.98  SiO2
	SiO2(a)          -1.55   -4.26   -2.71  SiO2

Reaction step 12.

Using solution 1.	PURE WATER
Using pure phase assemblage 1.	
Using reaction 1.	

Reaction 1.	Irreversible reaction defined in simulation 8.

	 4.000e-005 moles of the following reaction have been added:

	                 Relative
	Reactant            moles

	Microcline           1.00000

	                 Relative
	Element             moles
	Al                   1.00000
	K                    1.00000
	O                    8.00000
	Si                   3.00000

-------------------------------Phase assemblage--------------------------------

                                                      Moles in assemblage
Phase                  SI log IAP  log KT      Initial       Final       Delta

Gibbsite            -1.07    6.98    8.05   0.000e+000           0  0.000e+000
Kaolinite           -0.09    5.62    5.71   0.000e+000           0  0.000e+000
Microcline          -1.87   -0.99    0.88   0.000e+000           0  0.000e+000
Muscovite           -0.00   12.97   12.97   0.000e+000  1.324e-005  1.324e-005

-----------------------------Solution composition------------------------------

	Elements           Molality       Moles

	Al               2.755e-007  2.755e-007
	K                2.676e-005  2.676e-005
	Si               8.028e-005  8.028e-005

----------------------------Description of solution----------------------------

                                       pH  =   9.121      Charge balance
                                       pe  =   8.814      Adjusted to redox equilibrium
       Specific Conductance (uS/cm, 25 oC) = 4
                          Density (g/cm3)  =   0.99705
                        Activity of water  =   1.000
                           Ionic strength  =  2.676e-005
                       Mass of water (kg)  =  1.000e+000
                 Total alkalinity (eq/kg)  =  2.759e-005
                    Total carbon (mol/kg)  =  0.000e+000
                       Total CO2 (mol/kg)  =  0.000e+000
                      Temperature (deg C)  =  25.000
                  Electrical balance (eq)  = -8.670e-014
 Percent error, 100*(Cat-|An|)/(Cat+|An|)  =  -0.00
                               Iterations  =  13
                                  Total H  = 1.110124e+002
                                  Total O  = 5.550638e+001

----------------------------Distribution of species----------------------------

                                                   Log       Log         Log 
   Species                 Molality    Activity  Molality  Activity     Gamma

   OH-                   1.332e-005  1.324e-005    -4.876    -4.878    -0.003
   H+                    7.608e-010  7.563e-010    -9.119    -9.121    -0.003
   H2O                   5.551e+001  1.000e+000     1.744    -0.000     0.000
Al              2.755e-007
   Al(OH)4-              2.754e-007  2.737e-007    -6.560    -6.563    -0.003
   Al(OH)3               1.098e-010  1.098e-010    -9.959    -9.959     0.000
   Al(OH)2+              5.672e-013  5.637e-013   -12.246   -12.249    -0.003
   AlOH+2                5.572e-017  5.440e-017   -16.254   -16.264    -0.010
   Al+3                  4.370e-021  4.141e-021   -20.359   -20.383    -0.023
H(0)            1.904e-039
   H2                    9.519e-040  9.520e-040   -39.021   -39.021     0.000
K               2.676e-005
   K+                    2.676e-005  2.660e-005    -4.573    -4.575    -0.003
   KOH                   1.219e-010  1.219e-010    -9.914    -9.914     0.000
O(0)            9.200e-015
   O2                    4.600e-015  4.600e-015   -14.337   -14.337     0.000
Si              8.028e-005
   H4SiO4                6.711e-005  6.711e-005    -4.173    -4.173     0.000
   H3SiO4-               1.316e-005  1.308e-005    -4.881    -4.883    -0.003
   H2SiO4-2              1.206e-009  1.177e-009    -8.919    -8.929    -0.010

------------------------------Saturation indices-------------------------------

	Phase               SI log IAP  log KT

	Al(OH)3(a)       -3.82    6.98   10.80  Al(OH)3
	Chalcedony       -0.62   -4.17   -3.55  SiO2
	Gibbsite         -1.07    6.98    8.05  Al(OH)3
	H2(g)           -35.87  -39.02   -3.15  H2
	H2O(g)           -1.51   -0.00    1.51  H2O
	K-feldspar       -3.08  -23.66  -20.57  KAlSi3O8
	K-mica            0.27   12.97   12.70  KAl3Si3O10(OH)2
	Kaolinite        -0.09    5.62    5.71  Al2Si2O5(OH)4
	Microcline       -1.87   -0.99    0.88  KAlSi3O8
	Muscovite        -0.00   12.97   12.97  KAl3Si3O10(OH)2
	O2(g)           -11.44  -14.34   -2.89  O2
	Quartz           -0.19   -4.17   -3.98  SiO2
	SiO2(a)          -1.46   -4.17   -2.71  SiO2

Reaction step 13.

Using solution 1.	PURE WATER
Using pure phase assemblage 1.	
Using reaction 1.	

Reaction 1.	Irreversible reaction defined in simulation 8.

	 5.000e-005 moles of the following reaction have been added:

	                 Relative
	Reactant            moles

	Microcline           1.00000

	                 Relative
	Element             moles
	Al                   1.00000
	K                    1.00000
	O                    8.00000
	Si                   3.00000

-------------------------------Phase assemblage--------------------------------

                                                      Moles in assemblage
Phase                  SI log IAP  log KT      Initial       Final       Delta

Gibbsite            -1.20    6.84    8.05   0.000e+000           0  0.000e+000
Kaolinite           -0.19    5.52    5.71   0.000e+000           0  0.000e+000
Microcline          -1.59   -0.72    0.88   0.000e+000           0  0.000e+000
Muscovite            0.00   12.97   12.97   0.000e+000  1.659e-005  1.659e-005

-----------------------------Solution composition------------------------------

	Elements           Molality       Moles

	Al               2.268e-007  2.268e-007
	K                3.341e-005  3.341e-005
	Si               1.002e-004  1.002e-004

----------------------------Description of solution----------------------------

                                       pH  =   9.173      Charge balance
                                       pe  =   8.998      Adjusted to redox equilibrium
       Specific Conductance (uS/cm, 25 oC) = 5
                          Density (g/cm3)  =   0.99705
                        Activity of water  =   1.000
                           Ionic strength  =  3.341e-005
                       Mass of water (kg)  =  1.000e+000
                 Total alkalinity (eq/kg)  =  3.409e-005
                    Total carbon (mol/kg)  =  0.000e+000
                       Total CO2 (mol/kg)  =  0.000e+000
                      Temperature (deg C)  =  25.000
                  Electrical balance (eq)  = -9.507e-016
 Percent error, 100*(Cat-|An|)/(Cat+|An|)  =  -0.00
                               Iterations  =  14
                                  Total H  = 1.110124e+002
                                  Total O  = 5.550642e+001

----------------------------Distribution of species----------------------------

                                                   Log       Log         Log 
   Species                 Molality    Activity  Molality  Activity     Gamma

   OH-                   1.502e-005  1.492e-005    -4.823    -4.826    -0.003
   H+                    6.754e-010  6.709e-010    -9.170    -9.173    -0.003
   H2O                   5.551e+001  1.000e+000     1.744    -0.000     0.000
Al              2.268e-007
   Al(OH)4-              2.267e-007  2.252e-007    -6.645    -6.647    -0.003
   Al(OH)3               8.017e-011  8.017e-011   -10.096   -10.096     0.000
   Al(OH)2+              3.675e-013  3.651e-013   -12.435   -12.438    -0.003
   AlOH+2                3.210e-017  3.125e-017   -16.493   -16.505    -0.012
   Al+3                  2.241e-021  2.111e-021   -20.649   -20.676    -0.026
H(0)            6.443e-040
   H2                    3.222e-040  3.222e-040   -39.492   -39.492     0.000
K               3.341e-005
   K+                    3.341e-005  3.318e-005    -4.476    -4.479    -0.003
   KOH                   1.715e-010  1.715e-010    -9.766    -9.766     0.000
O(0)            8.033e-014
   O2                    4.016e-014  4.016e-014   -13.396   -13.396     0.000
Si              1.002e-004
   H4SiO4                8.207e-005  8.207e-005    -4.086    -4.086     0.000
   H3SiO4-               1.816e-005  1.804e-005    -4.741    -4.744    -0.003
   H2SiO4-2              1.878e-009  1.829e-009    -8.726    -8.738    -0.012

------------------------------Saturation indices-------------------------------

	Phase               SI log IAP  log KT

	Al(OH)3(a)       -3.96    6.84   10.80  Al(OH)3
	Chalcedony       -0.53   -4.09   -3.55  SiO2
	Gibbsite         -1.20    6.84    8.05  Al(OH)3
	H2(g)           -36.34  -39.49   -3.15  H2
	H2O(g)           -1.51   -0.00    1.51  H2O
	K-feldspar       -2.81  -23.38  -20.57  KAlSi3O8
	K-mica            0.27   12.97   12.70  KAl3Si3O10(OH)2
	Kaolinite        -0.19    5.52    5.71  Al2Si2O5(OH)4
	Microcline       -1.59   -0.72    0.88  KAlSi3O8
	Muscovite         0.00   12.97   12.97  KAl3Si3O10(OH)2
	O2(g)           -10.50  -13.40   -2.89  O2
	Quartz           -0.11   -4.09   -3.98  SiO2
	SiO2(a)          -1.37   -4.09   -2.71  SiO2

------------------
End of simulation.
------------------

------------------------------------
Reading input data for simulation 9.
------------------------------------

	USE solution 1
	EQUILIBRIUM_PHASES 1
	        Muscovite               0.0     10.0
	        Kaolinite       0.0     10.0
	        Gibbsite        0.0     10.0
	END
-----------------------------------------
Beginning of batch-reaction calculations.
-----------------------------------------

Reaction step 1.

Using solution 1.	PURE WATER
Using pure phase assemblage 1.	

-------------------------------Phase assemblage--------------------------------

                                                      Moles in assemblage
Phase                  SI log IAP  log KT      Initial       Final       Delta

Gibbsite             0.00    8.05    8.05   1.000e+001  1.000e+001  4.325e-006
Kaolinite           -0.00    5.71    5.71   1.000e+001  1.000e+001  2.404e-005
Muscovite            0.00   12.97   12.97   1.000e+001  1.000e+001 -1.859e-005

-----------------------------Solution composition------------------------------

	Elements           Molality       Moles

	Al               3.366e-006  3.366e-006
	K                1.859e-005  1.859e-005
	Si               7.691e-006  7.691e-006

----------------------------Description of solution----------------------------

                                       pH  =   9.141      Charge balance
                                       pe  =   8.333      Adjusted to redox equilibrium
       Specific Conductance (uS/cm, 25 oC) = 4
                          Density (g/cm3)  =   0.99705
                        Activity of water  =   1.000
                           Ionic strength  =  1.859e-005
                       Mass of water (kg)  =  1.000e+000
                 Total alkalinity (eq/kg)  =  2.869e-005
                    Total carbon (mol/kg)  =  0.000e+000
                       Total CO2 (mol/kg)  =  0.000e+000
                      Temperature (deg C)  =  25.000
                  Electrical balance (eq)  = -1.992e-014
 Percent error, 100*(Cat-|An|)/(Cat+|An|)  =  -0.00
                               Iterations  =  12
                                  Total H  = 1.110124e+002
                                  Total O  = 5.550621e+001

----------------------------Distribution of species----------------------------

                                                   Log       Log         Log 
   Species                 Molality    Activity  Molality  Activity     Gamma

   OH-                   1.392e-005  1.385e-005    -4.856    -4.859    -0.002
   H+                    7.265e-010  7.229e-010    -9.139    -9.141    -0.002
   H2O                   5.551e+001  1.000e+000     1.744    -0.000     0.000
Al              3.366e-006
   Al(OH)4-              3.365e-006  3.348e-006    -5.473    -5.475    -0.002
   Al(OH)3               1.284e-009  1.284e-009    -8.891    -8.891     0.000
   Al(OH)2+              6.332e-012  6.300e-012   -11.198   -11.201    -0.002
   AlOH+2                5.929e-016  5.811e-016   -15.227   -15.236    -0.009
   Al+3                  4.424e-020  4.229e-020   -19.354   -19.374    -0.020
H(0)            1.597e-038
   H2                    7.983e-039  7.983e-039   -38.098   -38.098     0.000
K               1.859e-005
   K+                    1.859e-005  1.850e-005    -4.731    -4.733    -0.002
   KOH                   8.872e-011  8.872e-011   -10.052   -10.052     0.000
O(0)            1.308e-016
   O2                    6.541e-017  6.541e-017   -16.184   -16.184     0.000
Si              7.691e-006
   H4SiO4                6.383e-006  6.383e-006    -5.195    -5.195     0.000
   H3SiO4-               1.308e-006  1.302e-006    -5.883    -5.885    -0.002
   H2SiO4-2              1.250e-010  1.225e-010    -9.903    -9.912    -0.009

------------------------------Saturation indices-------------------------------

	Phase               SI log IAP  log KT

	Al(OH)3(a)       -2.75    8.05   10.80  Al(OH)3
	Chalcedony       -1.64   -5.20   -3.55  SiO2
	Gibbsite          0.00    8.05    8.05  Al(OH)3
	H2(g)           -34.95  -38.10   -3.15  H2
	H2O(g)           -1.51   -0.00    1.51  H2O
	K-feldspar       -5.22  -25.79  -20.57  KAlSi3O8
	K-mica            0.27   12.97   12.70  KAl3Si3O10(OH)2
	Kaolinite        -0.00    5.71    5.71  Al2Si2O5(OH)4
	Microcline       -4.00   -3.13    0.88  KAlSi3O8
	Muscovite         0.00   12.97   12.97  KAl3Si3O10(OH)2
	O2(g)           -13.29  -16.18   -2.89  O2
	Quartz           -1.21   -5.20   -3.98  SiO2
	SiO2(a)          -2.48   -5.20   -2.71  SiO2

------------------
End of simulation.
------------------

-------------------------------------
Reading input data for simulation 10.
-------------------------------------

	USE solution 1
	EQUILIBRIUM_PHASES 1
	        Microcline      0.0     10.0
	        Muscovite       0.0     10.0
	        Kaolinite       0.0     10.0
	END
-----------------------------------------
Beginning of batch-reaction calculations.
-----------------------------------------

Reaction step 1.

Using solution 1.	PURE WATER
Using pure phase assemblage 1.	

-------------------------------Phase assemblage--------------------------------

                                                      Moles in assemblage
Phase                  SI log IAP  log KT      Initial       Final       Delta

Kaolinite            0.00    5.71    5.71   1.000e+001  1.000e+001 -2.656e-004
Microcline           0.00    0.88    0.88   1.000e+001  1.000e+001 -3.438e-004
Muscovite           -0.00   12.97   12.97   1.000e+001  1.000e+001  2.916e-004

-----------------------------Solution composition------------------------------

	Elements           Molality       Moles

	Al               1.205e-008  1.205e-008
	K                5.214e-005  5.214e-005
	Si               6.876e-004  6.876e-004

----------------------------Description of solution----------------------------

                                       pH  =   8.694      Charge balance
                                       pe  =   9.211      Adjusted to redox equilibrium
       Specific Conductance (uS/cm, 25 oC) = 4
                          Density (g/cm3)  =   0.99705
                        Activity of water  =   1.000
                           Ionic strength  =  5.214e-005
                       Mass of water (kg)  =  1.000e+000
                 Total alkalinity (eq/kg)  =  5.217e-005
                    Total carbon (mol/kg)  =  0.000e+000
                       Total CO2 (mol/kg)  =  0.000e+000
                      Temperature (deg C)  =  25.000
                  Electrical balance (eq)  = -2.986e-018
 Percent error, 100*(Cat-|An|)/(Cat+|An|)  =  -0.00
                               Iterations  =  15
                                  Total H  = 1.110129e+002
                                  Total O  = 5.550786e+001

----------------------------Distribution of species----------------------------

                                                   Log       Log         Log 
   Species                 Molality    Activity  Molality  Activity     Gamma

   OH-                   4.996e-006  4.954e-006    -5.301    -5.305    -0.004
   H+                    2.038e-009  2.021e-009    -8.691    -8.694    -0.004
   H2O                   5.551e+001  1.000e+000     1.744    -0.000     0.000
Al              1.205e-008
   Al(OH)4-              1.204e-008  1.194e-008    -7.920    -7.923    -0.004
   Al(OH)3               1.280e-011  1.280e-011   -10.893   -10.893     0.000
   Al(OH)2+              1.770e-013  1.755e-013   -12.752   -12.756    -0.004
   AlOH+2                4.679e-017  4.525e-017   -16.330   -16.344    -0.015
   Al+3                  9.918e-021  9.205e-021   -20.004   -20.036    -0.032
H(0)            2.192e-039
   H2                    1.096e-039  1.096e-039   -38.960   -38.960     0.000
K               5.214e-005
   K+                    5.214e-005  5.170e-005    -4.283    -4.287    -0.004
   KOH                   8.871e-011  8.871e-011   -10.052   -10.052     0.000
O(0)            6.940e-015
   O2                    3.470e-015  3.470e-015   -14.460   -14.460     0.000
Si              6.876e-004
   H4SiO4                6.405e-004  6.405e-004    -3.194    -3.194     0.000
   H3SiO4-               4.713e-005  4.673e-005    -4.327    -4.330    -0.004
   H2SiO4-2              1.627e-009  1.573e-009    -8.789    -8.803    -0.015

------------------------------Saturation indices-------------------------------

	Phase               SI log IAP  log KT

	Al(OH)3(a)       -4.75    6.05   10.80  Al(OH)3
	Chalcedony        0.36   -3.19   -3.55  SiO2
	Gibbsite         -2.00    6.05    8.05  Al(OH)3
	H2(g)           -35.81  -38.96   -3.15  H2
	H2O(g)           -1.51   -0.00    1.51  H2O
	K-feldspar       -1.22  -21.79  -20.57  KAlSi3O8
	K-mica            0.27   12.97   12.70  KAl3Si3O10(OH)2
	Kaolinite         0.00    5.71    5.71  Al2Si2O5(OH)4
	Microcline        0.00    0.88    0.88  KAlSi3O8
	Muscovite        -0.00   12.97   12.97  KAl3Si3O10(OH)2
	O2(g)           -11.57  -14.46   -2.89  O2
	Quartz            0.79   -3.19   -3.98  SiO2
	SiO2(a)          -0.48   -3.19   -2.71  SiO2

------------------
End of simulation.
------------------

-------------------------------------
Reading input data for simulation 11.
-------------------------------------

-----------
End of run.
-----------

