   Input file: ex9.cvode
  Output file: ex9.cvode.out
Database file: ../database/phreeqc.dat

------------------
Reading data base.
------------------

	SOLUTION_MASTER_SPECIES
	SOLUTION_SPECIES
	PHASES
	EXCHANGE_MASTER_SPECIES
	EXCHANGE_SPECIES
	SURFACE_MASTER_SPECIES
	SURFACE_SPECIES
	RATES
	END
------------------------------------
Reading input data for simulation 1.
------------------------------------

	DATABASE ../database/phreeqc.dat
	TITLE Example 9.--Kinetically controlled oxidation of ferrous 
	                  iron. Decoupled valence states of iron.
	SOLUTION_MASTER_SPECIES
	Fe_di              Fe_di+2    0.0     Fe_di              55.847
	Fe_tri             Fe_tri+3   0.0     Fe_tri             55.847
	SOLUTION_SPECIES
	Fe_di+2 = Fe_di+2
	        log_k   0.0
	Fe_tri+3 = Fe_tri+3
	        log_k   0.0
	Fe_di+2 + H2O = Fe_diOH+ + H+
	        log_k   -9.5
	        delta_h 13.20   kcal
	Fe_di+2 + Cl- = Fe_diCl+
	        log_k   0.14
	Fe_di+2 + CO3-2 = Fe_diCO3
	        log_k   4.38
	Fe_di+2 + HCO3- = Fe_diHCO3+
	        log_k   2.0
	Fe_di+2 + SO4-2 = Fe_diSO4
	        log_k   2.25
	        delta_h 3.230   kcal
	Fe_di+2 + HSO4- = Fe_diHSO4+
	        log_k   1.08
	Fe_di+2 + 2HS- = Fe_di(HS)2
	        log_k   8.95
	Fe_di+2 + 3HS- = Fe_di(HS)3-
	        log_k   10.987
	Fe_di+2 + HPO4-2 = Fe_diHPO4
	        log_k   3.6
	Fe_di+2 + H2PO4- = Fe_diH2PO4+
	        log_k   2.7
	Fe_di+2 + F- = Fe_diF+
	        log_k   1.0
	Fe_tri+3 + H2O = Fe_triOH+2 + H+
	        log_k   -2.19
	        delta_h 10.4    kcal
	Fe_tri+3 + 2 H2O = Fe_tri(OH)2+ + 2 H+
	        log_k   -5.67
	        delta_h 17.1    kcal
	Fe_tri+3 + 3 H2O = Fe_tri(OH)3 + 3 H+
	        log_k   -12.56
	        delta_h 24.8    kcal
	Fe_tri+3 + 4 H2O = Fe_tri(OH)4- + 4 H+
	        log_k   -21.6
	        delta_h 31.9    kcal
	2 Fe_tri+3 + 2 H2O = Fe_tri2(OH)2+4 + 2 H+
	        log_k   -2.95
	        delta_h 13.5    kcal
	3 Fe_tri+3 + 4 H2O = Fe_tri3(OH)4+5 + 4 H+
	        log_k   -6.3
	        delta_h 14.3    kcal
	Fe_tri+3 + Cl- = Fe_triCl+2
	        log_k   1.48
	        delta_h 5.6     kcal
	Fe_tri+3 + 2 Cl- = Fe_triCl2+
	        log_k   2.13
	Fe_tri+3 + 3 Cl- = Fe_triCl3
	        log_k   1.13
	Fe_tri+3 + SO4-2 = Fe_triSO4+
	        log_k   4.04
	        delta_h 3.91    kcal
	Fe_tri+3 + HSO4- = Fe_triHSO4+2
	        log_k   2.48
	Fe_tri+3 + 2 SO4-2 = Fe_tri(SO4)2-
	        log_k   5.38
	        delta_h 4.60    kcal
	Fe_tri+3 + HPO4-2 = Fe_triHPO4+
	        log_k   5.43
	        delta_h 5.76    kcal
	Fe_tri+3 + H2PO4- = Fe_triH2PO4+2
	        log_k   5.43
	Fe_tri+3 + F- = Fe_triF+2
	        log_k   6.2
	        delta_h 2.7     kcal
	Fe_tri+3 + 2 F- = Fe_triF2+
	        log_k   10.8
	        delta_h 4.8     kcal
	Fe_tri+3 + 3 F- = Fe_triF3
	        log_k   14.0
	        delta_h 5.4     kcal
	PHASES
	Goethite
	        Fe_triOOH + 3 H+ = Fe_tri+3 + 2 H2O
	        log_k   -1.0
	END
-----
TITLE
-----

 Example 9.--Kinetically controlled oxidation of ferrous 
                  iron. Decoupled valence states of iron.

------------------
End of simulation.
------------------

------------------------------------
Reading input data for simulation 2.
------------------------------------

	SOLUTION 1
	        pH  7.0
	        pe 10.0  O2(g) -0.67
	        Fe_di  0.1
	        Na  10.
	        Cl  10.  charge
	EQUILIBRIUM_PHASES 1
	        O2(g)           -0.67
	RATES
	Fe_di_ox
	start
	10  Fe_di = TOT("Fe_di")
	20  if (Fe_di <= 0) then goto 200
	30  p_o2 = 10^(SI("O2(g)"))
	40  moles = (2.91e-9 + 1.33e12 * (ACT("OH-"))^2 * p_o2) * Fe_di * TIME
	200 SAVE moles
	end
	KINETICS 1
	cvode
	Fe_di_ox
	        formula  Fe_di  -1.0  Fe_tri  1.0
	        steps 100 400 3100 10800 21600 5.04e4 8.64e4 1.728e5 1.728e5 1.728e5 1.728e5 
	INCREMENTAL_REACTIONS true
	SELECTED_OUTPUT
	        file ex9.sel
	        reset false
	USER_PUNCH
	headings Days  Fe(2)  Fe(3)  pH  si_goethite
	10 PUNCH SIM_TIME/3600/24 TOT("Fe_di")*1e6, TOT("Fe_tri")*1e6, -LA("H+"), SI("Goethite")
	END
-------------------------------------------
Beginning of initial solution calculations.
-------------------------------------------

Initial solution 1.	

-----------------------------Solution composition------------------------------

	Elements           Molality       Moles

	Cl               1.020e-002  1.020e-002  Charge balance
	Fe_di            1.000e-004  1.000e-004
	Na               1.000e-002  1.000e-002

----------------------------Description of solution----------------------------

                                       pH  =   7.000    
                                       pe  =  13.629      Equilibrium with O2(g)
       Specific Conductance (uS/cm, 25 oC) = 1199
                          Density (g/cm3)  =   0.99748
                        Activity of water  =   1.000
                           Ionic strength  =  1.030e-002
                       Mass of water (kg)  =  1.000e+000
                 Total alkalinity (eq/kg)  =  2.308e-007
                    Total carbon (mol/kg)  =  0.000e+000
                       Total CO2 (mol/kg)  =  0.000e+000
                      Temperature (deg C)  =  25.000
                  Electrical balance (eq)  = -1.914e-018
 Percent error, 100*(Cat-|An|)/(Cat+|An|)  =  -0.00
                               Iterations  =   9
                                  Total H  = 1.110124e+002
                                  Total O  = 5.550676e+001

----------------------------Distribution of species----------------------------

                                                   Log       Log         Log 
   Species                 Molality    Activity  Molality  Activity     Gamma

   OH-                   1.113e-007  1.001e-007    -6.953    -7.000    -0.046
   H+                    1.096e-007  1.000e-007    -6.960    -7.000    -0.040
   H2O                   5.551e+001  9.997e-001     1.744    -0.000     0.000
Cl              1.020e-002
   Cl-                   1.020e-002  9.171e-003    -1.991    -2.038    -0.046
   Fe_diCl+              9.149e-007  8.242e-007    -6.039    -6.084    -0.045
Fe_di           1.000e-004
   Fe_di+2               9.886e-005  6.510e-005    -4.005    -4.186    -0.181
   Fe_diCl+              9.149e-007  8.242e-007    -6.039    -6.084    -0.045
   Fe_diOH+              2.285e-007  2.058e-007    -6.641    -6.687    -0.045
H(0)            0.000e+000
   H2                    0.000e+000  0.000e+000   -44.410   -44.409     0.001
Na              1.000e-002
   Na+                   1.000e-002  9.019e-003    -2.000    -2.045    -0.045
   NaOH                  5.943e-010  5.957e-010    -9.226    -9.225     0.001
O(0)            5.466e-004
   O2                    2.733e-004  2.739e-004    -3.563    -3.562     0.001

------------------------------Saturation indices-------------------------------

	Phase               SI log IAP  log KT

	H2(g)           -41.26  -44.41   -3.15  H2
	H2O(g)           -1.51   -0.00    1.51  H2O
	Halite           -5.66   -4.08    1.58  NaCl
	O2(g)            -0.67   -3.56   -2.89  O2

-----------------------------------------
Beginning of batch-reaction calculations.
-----------------------------------------

Reaction step 1.

Using solution 1.	
Using pure phase assemblage 1.	
Using kinetics 1.	Kinetics defined in simulation 2.

Kinetics 1.	Kinetics defined in simulation 2.

	Time step: 100 seconds  (Incremented time: 100 seconds)

	Rate name       Delta Moles Total Moles   Reactant        Coefficient

	Fe_di_ox        -1.046e-006  1.000e+000   Fe_di                    -1
	                                          Fe_tri                    1

-------------------------------Phase assemblage--------------------------------

                                                      Moles in assemblage
Phase                  SI log IAP  log KT      Initial       Final       Delta

O2(g)               -0.67   -3.56   -2.89   1.000e+001  1.000e+001 -2.616e-007

-----------------------------Solution composition------------------------------

	Elements           Molality       Moles

	Cl               1.020e-002  1.020e-002
	Fe_di            9.895e-005  9.895e-005
	Fe_tri           1.046e-006  1.046e-006
	Na               1.000e-002  1.000e-002

----------------------------Description of solution----------------------------

                                       pH  =   6.053      Charge balance
                                       pe  =  14.577      Adjusted to redox equilibrium
       Specific Conductance (uS/cm, 25 oC) = 1199
                          Density (g/cm3)  =   0.99748
                        Activity of water  =   1.000
                           Ionic strength  =  1.030e-002
                       Mass of water (kg)  =  1.000e+000
                 Total alkalinity (eq/kg)  =  1.277e-006
                    Total carbon (mol/kg)  =  0.000e+000
                       Total CO2 (mol/kg)  =  0.000e+000
                      Temperature (deg C)  =  25.000
                  Electrical balance (eq)  = -3.106e-015
 Percent error, 100*(Cat-|An|)/(Cat+|An|)  =  -0.00
                               Iterations  = 337
                                  Total H  = 1.110124e+002
                                  Total O  = 5.550676e+001

----------------------------Distribution of species----------------------------

                                                   Log       Log         Log 
   Species                 Molality    Activity  Molality  Activity     Gamma

   H+                    9.708e-007  8.859e-007    -6.013    -6.053    -0.040
   OH-                   1.257e-008  1.130e-008    -7.901    -7.947    -0.046
   H2O                   5.551e+001  9.997e-001     1.744    -0.000     0.000
Cl              1.020e-002
   Cl-                   1.020e-002  9.171e-003    -1.991    -2.038    -0.046
   Fe_diCl+              9.072e-007  8.173e-007    -6.042    -6.088    -0.045
   Fe_triCl+2            1.283e-013  8.451e-014   -12.892   -13.073    -0.181
   Fe_triCl2+            3.843e-015  3.462e-015   -14.415   -14.461    -0.045
   Fe_triCl3             3.168e-018  3.175e-018   -17.499   -17.498     0.001
Fe_di           9.895e-005
   Fe_di+2               9.802e-005  6.456e-005    -4.009    -4.190    -0.181
   Fe_diCl+              9.072e-007  8.173e-007    -6.042    -6.088    -0.045
   Fe_diOH+              2.557e-008  2.304e-008    -7.592    -7.638    -0.045
Fe_tri          1.046e-006
   Fe_tri(OH)2+          9.221e-007  8.307e-007    -6.035    -6.081    -0.045
   Fe_tri(OH)3           1.205e-007  1.207e-007    -6.919    -6.918     0.001
   Fe_triOH+2            3.376e-009  2.223e-009    -8.472    -8.653    -0.181
   Fe_tri(OH)4-          1.379e-010  1.243e-010    -9.860    -9.906    -0.045
   Fe_tri+3              7.809e-013  3.051e-013   -12.107   -12.516    -0.408
   Fe_triCl+2            1.283e-013  8.451e-014   -12.892   -13.073    -0.181
   Fe_triCl2+            3.843e-015  3.462e-015   -14.415   -14.461    -0.045
   Fe_tri2(OH)2+4        7.071e-016  1.330e-016   -15.151   -15.876    -0.726
   Fe_triCl3             3.168e-018  3.175e-018   -17.499   -17.498     0.001
   Fe_tri3(OH)4+5        3.141e-019  2.309e-020   -18.503   -19.637    -1.134
H(0)            0.000e+000
   H2                    0.000e+000  0.000e+000   -44.410   -44.409     0.001
Na              1.000e-002
   Na+                   1.000e-002  9.019e-003    -2.000    -2.045    -0.045
   NaOH                  6.708e-011  6.724e-011   -10.173   -10.172     0.001
O(0)            5.466e-004
   O2                    2.733e-004  2.739e-004    -3.563    -3.562     0.001

------------------------------Saturation indices-------------------------------

	Phase               SI log IAP  log KT

	Goethite          6.64    5.64   -1.00  Fe_triOOH
	H2(g)           -41.26  -44.41   -3.15  H2
	H2O(g)           -1.51   -0.00    1.51  H2O
	Halite           -5.66   -4.08    1.58  NaCl
	O2(g)            -0.67   -3.56   -2.89  O2

Reaction step 2.

Using solution 1.	
Using pure phase assemblage 1.	
Using kinetics 1.	Kinetics defined in simulation 2.

Kinetics 1.	Kinetics defined in simulation 2.

	Time step: 400 seconds  (Incremented time: 500 seconds)

	Rate name       Delta Moles Total Moles   Reactant        Coefficient

	Fe_di_ox        -7.419e-007  1.000e+000   Fe_di                    -1
	                                          Fe_tri                    1

-------------------------------Phase assemblage--------------------------------

                                                      Moles in assemblage
Phase                  SI log IAP  log KT      Initial       Final       Delta

O2(g)               -0.67   -3.56   -2.89   1.000e+001  1.000e+001 -1.855e-007

-----------------------------Solution composition------------------------------

	Elements           Molality       Moles

	Cl               1.020e-002  1.020e-002
	Fe_di            9.821e-005  9.821e-005
	Fe_tri           1.788e-006  1.788e-006
	Na               1.000e-002  1.000e-002

----------------------------Description of solution----------------------------

                                       pH  =   5.811      Charge balance
                                       pe  =  14.818      Adjusted to redox equilibrium
       Specific Conductance (uS/cm, 25 oC) = 1199
                          Density (g/cm3)  =   0.99748
                        Activity of water  =   1.000
                           Ionic strength  =  1.030e-002
                       Mass of water (kg)  =  1.000e+000
                 Total alkalinity (eq/kg)  =  2.019e-006
                    Total carbon (mol/kg)  =  0.000e+000
                       Total CO2 (mol/kg)  =  0.000e+000
                      Temperature (deg C)  =  25.000
                  Electrical balance (eq)  = -3.103e-015
 Percent error, 100*(Cat-|An|)/(Cat+|An|)  =  -0.00
                               Iterations  =  53
                                  Total H  = 1.110124e+002
                                  Total O  = 5.550676e+001

----------------------------Distribution of species----------------------------

                                                   Log       Log         Log 
   Species                 Molality    Activity  Molality  Activity     Gamma

   H+                    1.692e-006  1.544e-006    -5.771    -5.811    -0.040
   OH-                   7.208e-009  6.480e-009    -8.142    -8.188    -0.046
   H2O                   5.551e+001  9.997e-001     1.744    -0.000     0.000
Cl              1.020e-002
   Cl-                   1.020e-002  9.171e-003    -1.991    -2.038    -0.046
   Fe_diCl+              9.005e-007  8.112e-007    -6.046    -6.091    -0.045
   Fe_triCl+2            6.993e-013  4.605e-013   -12.155   -12.337    -0.181
   Fe_triCl2+            2.094e-014  1.887e-014   -13.679   -13.724    -0.045
   Fe_triCl3             1.726e-017  1.730e-017   -16.763   -16.762     0.001
Fe_di           9.821e-005
   Fe_di+2               9.730e-005  6.408e-005    -4.012    -4.193    -0.181
   Fe_diCl+              9.005e-007  8.112e-007    -6.046    -6.091    -0.045
   Fe_diOH+              1.456e-008  1.312e-008    -7.837    -7.882    -0.045
Fe_tri          1.788e-006
   Fe_tri(OH)2+          1.653e-006  1.489e-006    -5.782    -5.827    -0.045
   Fe_tri(OH)3           1.239e-007  1.242e-007    -6.907    -6.906     0.001
   Fe_triOH+2            1.055e-008  6.949e-009    -7.977    -8.158    -0.181
   Fe_tri(OH)4-          8.139e-011  7.332e-011   -10.089   -10.135    -0.045
   Fe_tri+3              4.255e-012  1.663e-012   -11.371   -11.779    -0.408
   Fe_triCl+2            6.993e-013  4.605e-013   -12.155   -12.337    -0.181
   Fe_triCl2+            2.094e-014  1.887e-014   -13.679   -13.724    -0.045
   Fe_tri2(OH)2+4        6.909e-015  1.300e-015   -14.161   -14.886    -0.726
   Fe_triCl3             1.726e-017  1.730e-017   -16.763   -16.762     0.001
   Fe_tri3(OH)4+5        5.502e-018  4.045e-019   -17.259   -18.393    -1.134
H(0)            0.000e+000
   H2                    0.000e+000  0.000e+000   -44.410   -44.409     0.001
Na              1.000e-002
   Na+                   1.000e-002  9.019e-003    -2.000    -2.045    -0.045
   NaOH                  3.848e-011  3.857e-011   -10.415   -10.414     0.001
O(0)            5.466e-004
   O2                    2.733e-004  2.739e-004    -3.563    -3.562     0.001

------------------------------Saturation indices-------------------------------

	Phase               SI log IAP  log KT

	Goethite          6.65    5.65   -1.00  Fe_triOOH
	H2(g)           -41.26  -44.41   -3.15  H2
	H2O(g)           -1.51   -0.00    1.51  H2O
	Halite           -5.66   -4.08    1.58  NaCl
	O2(g)            -0.67   -3.56   -2.89  O2

Reaction step 3.

Using solution 1.	
Using pure phase assemblage 1.	
Using kinetics 1.	Kinetics defined in simulation 2.

Kinetics 1.	Kinetics defined in simulation 2.

	Time step: 3100 seconds  (Incremented time: 3600 seconds)

	Rate name       Delta Moles Total Moles   Reactant        Coefficient

	Fe_di_ox        -1.610e-006  1.000e+000   Fe_di                    -1
	                                          Fe_tri                    1

-------------------------------Phase assemblage--------------------------------

                                                      Moles in assemblage
Phase                  SI log IAP  log KT      Initial       Final       Delta

O2(g)               -0.67   -3.56   -2.89   1.000e+001  1.000e+001 -4.026e-007

-----------------------------Solution composition------------------------------

	Elements           Molality       Moles

	Cl               1.020e-002  1.020e-002
	Fe_di            9.660e-005  9.660e-005
	Fe_tri           3.398e-006  3.398e-006
	Na               1.000e-002  1.000e-002

----------------------------Description of solution----------------------------

                                       pH  =   5.526      Charge balance
                                       pe  =  15.104      Adjusted to redox equilibrium
       Specific Conductance (uS/cm, 25 oC) = 1200
                          Density (g/cm3)  =   0.99748
                        Activity of water  =   1.000
                           Ionic strength  =  1.029e-002
                       Mass of water (kg)  =  1.000e+000
                 Total alkalinity (eq/kg)  =  3.629e-006
                    Total carbon (mol/kg)  =  0.000e+000
                       Total CO2 (mol/kg)  =  0.000e+000
                      Temperature (deg C)  =  25.000
                  Electrical balance (eq)  = -3.102e-015
 Percent error, 100*(Cat-|An|)/(Cat+|An|)  =  -0.00
                               Iterations  =  69
                                  Total H  = 1.110124e+002
                                  Total O  = 5.550677e+001

----------------------------Distribution of species----------------------------

                                                   Log       Log         Log 
   Species                 Molality    Activity  Molality  Activity     Gamma

   H+                    3.264e-006  2.979e-006    -5.486    -5.526    -0.040
   OH-                   3.737e-009  3.360e-009    -8.427    -8.474    -0.046
   H2O                   5.551e+001  9.997e-001     1.744    -0.000     0.000
Cl              1.020e-002
   Cl-                   1.020e-002  9.171e-003    -1.991    -2.038    -0.046
   Fe_diCl+              8.858e-007  7.980e-007    -6.053    -6.098    -0.045
   Fe_triCl+2            5.086e-012  3.349e-012   -11.294   -11.475    -0.181
   Fe_triCl2+            1.523e-013  1.372e-013   -12.817   -12.863    -0.045
   Fe_triCl3             1.255e-016  1.258e-016   -15.901   -15.900     0.001
Fe_di           9.660e-005
   Fe_di+2               9.571e-005  6.304e-005    -4.019    -4.200    -0.181
   Fe_diCl+              8.858e-007  7.980e-007    -6.053    -6.098    -0.045
   Fe_diOH+              7.426e-009  6.690e-009    -8.129    -8.175    -0.045
Fe_tri          3.398e-006
   Fe_tri(OH)2+          3.233e-006  2.912e-006    -5.490    -5.536    -0.045
   Fe_tri(OH)3           1.256e-007  1.259e-007    -6.901    -6.900     0.001
   Fe_triOH+2            3.979e-008  2.620e-008    -7.400    -7.582    -0.181
   Fe_tri(OH)4-          4.278e-011  3.853e-011   -10.369   -10.414    -0.045
   Fe_tri+3              3.095e-011  1.209e-011   -10.509   -10.917    -0.408
   Fe_triCl+2            5.086e-012  3.349e-012   -11.294   -11.475    -0.181
   Fe_triCl2+            1.523e-013  1.372e-013   -12.817   -12.863    -0.045
   Fe_tri2(OH)2+4        9.822e-014  1.848e-014   -13.008   -13.733    -0.725
   Fe_tri3(OH)4+5        1.529e-016  1.124e-017   -15.815   -16.949    -1.134
   Fe_triCl3             1.255e-016  1.258e-016   -15.901   -15.900     0.001
H(0)            0.000e+000
   H2                    0.000e+000  0.000e+000   -44.410   -44.409     0.001
Na              1.000e-002
   Na+                   1.000e-002  9.019e-003    -2.000    -2.045    -0.045
   NaOH                  1.995e-011  2.000e-011   -10.700   -10.699     0.001
O(0)            5.466e-004
   O2                    2.733e-004  2.739e-004    -3.563    -3.562     0.001

------------------------------Saturation indices-------------------------------

	Phase               SI log IAP  log KT

	Goethite          6.66    5.66   -1.00  Fe_triOOH
	H2(g)           -41.26  -44.41   -3.15  H2
	H2O(g)           -1.51   -0.00    1.51  H2O
	Halite           -5.66   -4.08    1.58  NaCl
	O2(g)            -0.67   -3.56   -2.89  O2

Reaction step 4.

Using solution 1.	
Using pure phase assemblage 1.	
Using kinetics 1.	Kinetics defined in simulation 2.

Kinetics 1.	Kinetics defined in simulation 2.

	Time step: 10800 seconds  (Incremented time: 14400 seconds)

	Rate name       Delta Moles Total Moles   Reactant        Coefficient

	Fe_di_ox        -1.959e-006  1.000e+000   Fe_di                    -1
	                                          Fe_tri                    1

-------------------------------Phase assemblage--------------------------------

                                                      Moles in assemblage
Phase                  SI log IAP  log KT      Initial       Final       Delta

O2(g)               -0.67   -3.56   -2.89   1.000e+001  1.000e+001 -4.898e-007

-----------------------------Solution composition------------------------------

	Elements           Molality       Moles

	Cl               1.020e-002  1.020e-002
	Fe_di            9.464e-005  9.464e-005
	Fe_tri           5.357e-006  5.357e-006
	Na               1.000e-002  1.000e-002

----------------------------Description of solution----------------------------

                                       pH  =   5.327      Charge balance
                                       pe  =  15.302      Adjusted to redox equilibrium
       Specific Conductance (uS/cm, 25 oC) = 1200
                          Density (g/cm3)  =   0.99748
                        Activity of water  =   1.000
                           Ionic strength  =  1.029e-002
                       Mass of water (kg)  =  1.000e+000
                 Total alkalinity (eq/kg)  =  5.588e-006
                    Total carbon (mol/kg)  =  0.000e+000
                       Total CO2 (mol/kg)  =  0.000e+000
                      Temperature (deg C)  =  25.000
                  Electrical balance (eq)  =  3.336e-015
 Percent error, 100*(Cat-|An|)/(Cat+|An|)  =   0.00
                               Iterations  =  53
                                  Total H  = 1.110124e+002
                                  Total O  = 5.550677e+001

----------------------------Distribution of species----------------------------

                                                   Log       Log         Log 
   Species                 Molality    Activity  Molality  Activity     Gamma

   H+                    5.159e-006  4.708e-006    -5.287    -5.327    -0.040
   OH-                   2.365e-009  2.126e-009    -8.626    -8.672    -0.046
   H2O                   5.551e+001  9.997e-001     1.744    -0.000     0.000
Cl              1.020e-002
   Cl-                   1.020e-002  9.171e-003    -1.991    -2.038    -0.046
   Fe_diCl+              8.679e-007  7.819e-007    -6.062    -6.107    -0.045
   Fe_triCl+2            2.016e-011  1.328e-011   -10.695   -10.877    -0.181
   Fe_triCl2+            6.039e-013  5.440e-013   -12.219   -12.264    -0.045
   Fe_triCl3             4.978e-016  4.990e-016   -15.303   -15.302     0.001
Fe_di           9.464e-005
   Fe_di+2               9.377e-005  6.176e-005    -4.028    -4.209    -0.181
   Fe_diCl+              8.679e-007  7.819e-007    -6.062    -6.107    -0.045
   Fe_diOH+              4.603e-009  4.147e-009    -8.337    -8.382    -0.045
Fe_tri          5.357e-006
   Fe_tri(OH)2+          5.131e-006  4.622e-006    -5.290    -5.335    -0.045
   Fe_tri(OH)3           1.261e-007  1.264e-007    -6.899    -6.898     0.001
   Fe_triOH+2            9.980e-008  6.574e-008    -7.001    -7.182    -0.181
   Fe_tri+3              1.227e-010  4.795e-011    -9.911   -10.319    -0.408
   Fe_tri(OH)4-          2.718e-011  2.449e-011   -10.566   -10.611    -0.045
   Fe_triCl+2            2.016e-011  1.328e-011   -10.695   -10.877    -0.181
   Fe_tri2(OH)2+4        6.180e-013  1.163e-013   -12.209   -12.934    -0.725
   Fe_triCl2+            6.039e-013  5.440e-013   -12.219   -12.264    -0.045
   Fe_tri3(OH)4+5        1.527e-015  1.123e-016   -14.816   -15.950    -1.133
   Fe_triCl3             4.978e-016  4.990e-016   -15.303   -15.302     0.001
H(0)            0.000e+000
   H2                    0.000e+000  0.000e+000   -44.410   -44.409     0.001
Na              1.000e-002
   Na+                   1.000e-002  9.019e-003    -2.000    -2.045    -0.045
   NaOH                  1.262e-011  1.265e-011   -10.899   -10.898     0.001
O(0)            5.466e-004
   O2                    2.733e-004  2.739e-004    -3.563    -3.562     0.001

------------------------------Saturation indices-------------------------------

	Phase               SI log IAP  log KT

	Goethite          6.66    5.66   -1.00  Fe_triOOH
	H2(g)           -41.26  -44.41   -3.15  H2
	H2O(g)           -1.51   -0.00    1.51  H2O
	Halite           -5.66   -4.08    1.58  NaCl
	O2(g)            -0.67   -3.56   -2.89  O2

Reaction step 5.

Using solution 1.	
Using pure phase assemblage 1.	
Using kinetics 1.	Kinetics defined in simulation 2.

Kinetics 1.	Kinetics defined in simulation 2.

	Time step: 21600 seconds  (Incremented time: 36000 seconds)

	Rate name       Delta Moles Total Moles   Reactant        Coefficient

	Fe_di_ox        -1.881e-006  1.000e+000   Fe_di                    -1
	                                          Fe_tri                    1

-------------------------------Phase assemblage--------------------------------

                                                      Moles in assemblage
Phase                  SI log IAP  log KT      Initial       Final       Delta

O2(g)               -0.67   -3.56   -2.89   1.000e+001  1.000e+001 -4.702e-007

-----------------------------Solution composition------------------------------

	Elements           Molality       Moles

	Cl               1.020e-002  1.020e-002
	Fe_di            9.276e-005  9.276e-005
	Fe_tri           7.237e-006  7.237e-006
	Na               1.000e-002  1.000e-002

----------------------------Description of solution----------------------------

                                       pH  =   5.197      Charge balance
                                       pe  =  15.432      Adjusted to redox equilibrium
       Specific Conductance (uS/cm, 25 oC) = 1201
                          Density (g/cm3)  =   0.99748
                        Activity of water  =   1.000
                           Ionic strength  =  1.029e-002
                       Mass of water (kg)  =  1.000e+000
                 Total alkalinity (eq/kg)  =  7.468e-006
                    Total carbon (mol/kg)  =  0.000e+000
                       Total CO2 (mol/kg)  =  0.000e+000
                      Temperature (deg C)  =  25.000
                  Electrical balance (eq)  =  3.348e-015
 Percent error, 100*(Cat-|An|)/(Cat+|An|)  =   0.00
                               Iterations  =  42
                                  Total H  = 1.110124e+002
                                  Total O  = 5.550677e+001

----------------------------Distribution of species----------------------------

                                                   Log       Log         Log 
   Species                 Molality    Activity  Molality  Activity     Gamma

   H+                    6.956e-006  6.347e-006    -5.158    -5.197    -0.040
   OH-                   1.754e-009  1.577e-009    -8.756    -8.802    -0.046
   H2O                   5.551e+001  9.997e-001     1.744    -0.000     0.000
Cl              1.020e-002
   Cl-                   1.020e-002  9.171e-003    -1.991    -2.038    -0.046
   Fe_diCl+              8.507e-007  7.664e-007    -6.070    -6.116    -0.045
   Fe_triCl+2            4.950e-011  3.260e-011   -10.305   -10.487    -0.181
   Fe_triCl2+            1.483e-012  1.336e-012   -11.829   -11.874    -0.045
   Fe_triCl3             1.222e-015  1.225e-015   -14.913   -14.912     0.001
Fe_di           9.276e-005
   Fe_di+2               9.191e-005  6.054e-005    -4.037    -4.218    -0.181
   Fe_diCl+              8.507e-007  7.664e-007    -6.070    -6.116    -0.045
   Fe_diOH+              3.347e-009  3.015e-009    -8.475    -8.521    -0.045
Fe_tri          7.237e-006
   Fe_tri(OH)2+          6.929e-006  6.242e-006    -5.159    -5.205    -0.045
   Fe_triOH+2            1.817e-007  1.197e-007    -6.741    -6.922    -0.181
   Fe_tri(OH)3           1.263e-007  1.266e-007    -6.898    -6.897     0.001
   Fe_tri+3              3.012e-010  1.177e-010    -9.521    -9.929    -0.408
   Fe_triCl+2            4.950e-011  3.260e-011   -10.305   -10.487    -0.181
   Fe_tri(OH)4-          2.019e-011  1.819e-011   -10.695   -10.740    -0.045
   Fe_tri2(OH)2+4        2.049e-012  3.856e-013   -11.689   -12.414    -0.725
   Fe_triCl2+            1.483e-012  1.336e-012   -11.829   -11.874    -0.045
   Fe_tri3(OH)4+5        6.836e-015  5.028e-016   -14.165   -15.299    -1.133
   Fe_triCl3             1.222e-015  1.225e-015   -14.913   -14.912     0.001
H(0)            0.000e+000
   H2                    0.000e+000  0.000e+000   -44.410   -44.409     0.001
Na              1.000e-002
   Na+                   1.000e-002  9.019e-003    -2.000    -2.045    -0.045
   NaOH                  9.363e-012  9.385e-012   -11.029   -11.028     0.001
O(0)            5.466e-004
   O2                    2.733e-004  2.739e-004    -3.563    -3.562     0.001

------------------------------Saturation indices-------------------------------

	Phase               SI log IAP  log KT

	Goethite          6.66    5.66   -1.00  Fe_triOOH
	H2(g)           -41.26  -44.41   -3.15  H2
	H2O(g)           -1.51   -0.00    1.51  H2O
	Halite           -5.66   -4.08    1.58  NaCl
	O2(g)            -0.67   -3.56   -2.89  O2

Reaction step 6.

Using solution 1.	
Using pure phase assemblage 1.	
Using kinetics 1.	Kinetics defined in simulation 2.

Kinetics 1.	Kinetics defined in simulation 2.

	Time step: 50400 seconds  (Incremented time: 86400 seconds)

	Rate name       Delta Moles Total Moles   Reactant        Coefficient

	Fe_di_ox        -2.407e-006  1.000e+000   Fe_di                    -1
	                                          Fe_tri                    1

-------------------------------Phase assemblage--------------------------------

                                                      Moles in assemblage
Phase                  SI log IAP  log KT      Initial       Final       Delta

O2(g)               -0.67   -3.56   -2.89   1.000e+001  1.000e+001 -6.018e-007

-----------------------------Solution composition------------------------------

	Elements           Molality       Moles

	Cl               1.020e-002  1.020e-002
	Fe_di            9.036e-005  9.036e-005
	Fe_tri           9.644e-006  9.644e-006
	Na               1.000e-002  1.000e-002

----------------------------Description of solution----------------------------

                                       pH  =   5.075      Charge balance
                                       pe  =  15.555      Adjusted to redox equilibrium
       Specific Conductance (uS/cm, 25 oC) = 1202
                          Density (g/cm3)  =   0.99748
                        Activity of water  =   1.000
                           Ionic strength  =  1.029e-002
                       Mass of water (kg)  =  1.000e+000
                 Total alkalinity (eq/kg)  =  9.875e-006
                    Total carbon (mol/kg)  =  0.000e+000
                       Total CO2 (mol/kg)  =  0.000e+000
                      Temperature (deg C)  =  25.000
                  Electrical balance (eq)  =  3.359e-015
 Percent error, 100*(Cat-|An|)/(Cat+|An|)  =   0.00
                               Iterations  =  40
                                  Total H  = 1.110124e+002
                                  Total O  = 5.550677e+001

----------------------------Distribution of species----------------------------

                                                   Log       Log         Log 
   Species                 Molality    Activity  Molality  Activity     Gamma

   H+                    9.222e-006  8.415e-006    -5.035    -5.075    -0.040
   OH-                   1.323e-009  1.189e-009    -8.878    -8.925    -0.046
   H2O                   5.551e+001  9.997e-001     1.744    -0.000     0.000
Cl              1.020e-002
   Cl-                   1.020e-002  9.172e-003    -1.991    -2.038    -0.046
   Fe_diCl+              8.287e-007  7.466e-007    -6.082    -6.127    -0.045
   Fe_triCl+2            1.155e-010  7.607e-011    -9.937   -10.119    -0.181
   Fe_triCl2+            3.459e-012  3.116e-012   -11.461   -11.506    -0.045
   Fe_triCl3             2.851e-015  2.858e-015   -14.545   -14.544     0.001
Fe_di           9.036e-005
   Fe_di+2               8.953e-005  5.897e-005    -4.048    -4.229    -0.181
   Fe_diCl+              8.287e-007  7.466e-007    -6.082    -6.127    -0.045
   Fe_diOH+              2.459e-009  2.215e-009    -8.609    -8.655    -0.045
Fe_tri          9.644e-006
   Fe_tri(OH)2+          9.197e-006  8.285e-006    -5.036    -5.082    -0.045
   Fe_triOH+2            3.198e-007  2.106e-007    -6.495    -6.676    -0.181
   Fe_tri(OH)3           1.265e-007  1.268e-007    -6.898    -6.897     0.001
   Fe_tri+3              7.026e-010  2.746e-010    -9.153    -9.561    -0.408
   Fe_triCl+2            1.155e-010  7.607e-011    -9.937   -10.119    -0.181
   Fe_tri(OH)4-          1.525e-011  1.374e-011   -10.817   -10.862    -0.045
   Fe_tri2(OH)2+4        6.344e-012  1.194e-012   -11.198   -11.923    -0.725
   Fe_triCl2+            3.459e-012  3.116e-012   -11.461   -11.506    -0.045
   Fe_tri3(OH)4+5        2.809e-014  2.067e-015   -13.551   -14.685    -1.133
   Fe_triCl3             2.851e-015  2.858e-015   -14.545   -14.544     0.001
H(0)            0.000e+000
   H2                    0.000e+000  0.000e+000   -44.410   -44.409     0.001
Na              1.000e-002
   Na+                   1.000e-002  9.020e-003    -2.000    -2.045    -0.045
   NaOH                  7.062e-012  7.079e-012   -11.151   -11.150     0.001
O(0)            5.466e-004
   O2                    2.733e-004  2.739e-004    -3.563    -3.562     0.001

------------------------------Saturation indices-------------------------------

	Phase               SI log IAP  log KT

	Goethite          6.66    5.66   -1.00  Fe_triOOH
	H2(g)           -41.26  -44.41   -3.15  H2
	H2O(g)           -1.51   -0.00    1.51  H2O
	Halite           -5.66   -4.08    1.58  NaCl
	O2(g)            -0.67   -3.56   -2.89  O2

Reaction step 7.

Using solution 1.	
Using pure phase assemblage 1.	
Using kinetics 1.	Kinetics defined in simulation 2.

Kinetics 1.	Kinetics defined in simulation 2.

	Time step: 86400 seconds  (Incremented time: 172800 seconds)

	Rate name       Delta Moles Total Moles   Reactant        Coefficient

	Fe_di_ox        -2.465e-006  1.000e+000   Fe_di                    -1
	                                          Fe_tri                    1

-------------------------------Phase assemblage--------------------------------

                                                      Moles in assemblage
Phase                  SI log IAP  log KT      Initial       Final       Delta

O2(g)               -0.67   -3.56   -2.89   1.000e+001  1.000e+001 -6.164e-007

-----------------------------Solution composition------------------------------

	Elements           Molality       Moles

	Cl               1.020e-002  1.020e-002
	Fe_di            8.789e-005  8.789e-005
	Fe_tri           1.211e-005  1.211e-005
	Na               1.000e-002  1.000e-002

----------------------------Description of solution----------------------------

                                       pH  =   4.979      Charge balance
                                       pe  =  15.651      Adjusted to redox equilibrium
       Specific Conductance (uS/cm, 25 oC) = 1202
                          Density (g/cm3)  =   0.99748
                        Activity of water  =   1.000
                           Ionic strength  =  1.029e-002
                       Mass of water (kg)  =  1.000e+000
                 Total alkalinity (eq/kg)  =  1.234e-005
                    Total carbon (mol/kg)  =  0.000e+000
                       Total CO2 (mol/kg)  =  0.000e+000
                      Temperature (deg C)  =  25.000
                  Electrical balance (eq)  =  3.350e-015
 Percent error, 100*(Cat-|An|)/(Cat+|An|)  =   0.00
                               Iterations  =  38
                                  Total H  = 1.110124e+002
                                  Total O  = 5.550677e+001

----------------------------Distribution of species----------------------------

                                                   Log       Log         Log 
   Species                 Molality    Activity  Molality  Activity     Gamma

   H+                    1.151e-005  1.050e-005    -4.939    -4.979    -0.040
   OH-                   1.060e-009  9.531e-010    -8.975    -9.021    -0.046
   H2O                   5.551e+001  9.997e-001     1.744    -0.000     0.000
Cl              1.020e-002
   Cl-                   1.020e-002  9.172e-003    -1.991    -2.038    -0.046
   Fe_diCl+              8.061e-007  7.262e-007    -6.094    -6.139    -0.045
   Fe_triCl+2            2.245e-010  1.479e-010    -9.649    -9.830    -0.181
   Fe_triCl2+            6.724e-012  6.057e-012   -11.172   -11.218    -0.045
   Fe_triCl3             5.542e-015  5.556e-015   -14.256   -14.255     0.001
Fe_di           8.789e-005
   Fe_di+2               8.708e-005  5.736e-005    -4.060    -4.241    -0.181
   Fe_diCl+              8.061e-007  7.262e-007    -6.094    -6.139    -0.045
   Fe_diOH+              1.917e-009  1.727e-009    -8.717    -8.763    -0.045
Fe_tri          1.211e-005
   Fe_tri(OH)2+          1.148e-005  1.034e-005    -4.940    -4.985    -0.045
   Fe_triOH+2            4.981e-007  3.281e-007    -6.303    -6.484    -0.181
   Fe_tri(OH)3           1.266e-007  1.269e-007    -6.898    -6.897     0.001
   Fe_tri+3              1.366e-009  5.338e-010    -8.865    -9.273    -0.408
   Fe_triCl+2            2.245e-010  1.479e-010    -9.649    -9.830    -0.181
   Fe_tri2(OH)2+4        1.539e-011  2.898e-012   -10.813   -11.538    -0.725
   Fe_tri(OH)4-          1.223e-011  1.102e-011   -10.913   -10.958    -0.045
   Fe_triCl2+            6.724e-012  6.057e-012   -11.172   -11.218    -0.045
   Fe_tri3(OH)4+5        8.511e-014  6.263e-015   -13.070   -14.203    -1.133
   Fe_triCl3             5.542e-015  5.556e-015   -14.256   -14.255     0.001
H(0)            0.000e+000
   H2                    0.000e+000  0.000e+000   -44.410   -44.409     0.001
Na              1.000e-002
   Na+                   1.000e-002  9.020e-003    -2.000    -2.045    -0.045
   NaOH                  5.660e-012  5.673e-012   -11.247   -11.246     0.001
O(0)            5.466e-004
   O2                    2.733e-004  2.739e-004    -3.563    -3.562     0.001

------------------------------Saturation indices-------------------------------

	Phase               SI log IAP  log KT

	Goethite          6.66    5.66   -1.00  Fe_triOOH
	H2(g)           -41.26  -44.41   -3.15  H2
	H2O(g)           -1.51   -0.00    1.51  H2O
	Halite           -5.66   -4.08    1.58  NaCl
	O2(g)            -0.67   -3.56   -2.89  O2

Reaction step 8.

Using solution 1.	
Using pure phase assemblage 1.	
Using kinetics 1.	Kinetics defined in simulation 2.

Kinetics 1.	Kinetics defined in simulation 2.

	Time step: 172800 seconds  (Incremented time: 345600 seconds)

	Rate name       Delta Moles Total Moles   Reactant        Coefficient

	Fe_di_ox        -3.092e-006  1.000e+000   Fe_di                    -1
	                                          Fe_tri                    1

-------------------------------Phase assemblage--------------------------------

                                                      Moles in assemblage
Phase                  SI log IAP  log KT      Initial       Final       Delta

O2(g)               -0.67   -3.56   -2.89   1.000e+001  1.000e+001 -7.731e-007

-----------------------------Solution composition------------------------------

	Elements           Molality       Moles

	Cl               1.020e-002  1.020e-002
	Fe_di            8.480e-005  8.480e-005
	Fe_tri           1.520e-005  1.520e-005
	Na               1.000e-002  1.000e-002

----------------------------Description of solution----------------------------

                                       pH  =   4.884      Charge balance
                                       pe  =  15.746      Adjusted to redox equilibrium
       Specific Conductance (uS/cm, 25 oC) = 1203
                          Density (g/cm3)  =   0.99748
                        Activity of water  =   1.000
                           Ionic strength  =  1.028e-002
                       Mass of water (kg)  =  1.000e+000
                 Total alkalinity (eq/kg)  =  1.543e-005
                    Total carbon (mol/kg)  =  0.000e+000
                       Total CO2 (mol/kg)  =  0.000e+000
                      Temperature (deg C)  =  25.000
                  Electrical balance (eq)  =  3.350e-015
 Percent error, 100*(Cat-|An|)/(Cat+|An|)  =   0.00
                               Iterations  =  38
                                  Total H  = 1.110124e+002
                                  Total O  = 5.550677e+001

----------------------------Distribution of species----------------------------

                                                   Log       Log         Log 
   Species                 Molality    Activity  Molality  Activity     Gamma

   H+                    1.432e-005  1.307e-005    -4.844    -4.884    -0.040
   OH-                   8.518e-010  7.658e-010    -9.070    -9.116    -0.046
   H2O                   5.551e+001  9.997e-001     1.744    -0.000     0.000
Cl              1.020e-002
   Cl-                   1.020e-002  9.172e-003    -1.991    -2.038    -0.046
   Fe_diCl+              7.778e-007  7.007e-007    -6.109    -6.154    -0.045
   Fe_triCl+2            4.330e-010  2.852e-010    -9.364    -9.545    -0.181
   Fe_triCl2+            1.297e-011  1.169e-011   -10.887   -10.932    -0.045
   Fe_triCl3             1.069e-014  1.072e-014   -13.971   -13.970     0.001
Fe_di           8.480e-005
   Fe_di+2               8.402e-005  5.535e-005    -4.076    -4.257    -0.181
   Fe_diCl+              7.778e-007  7.007e-007    -6.109    -6.154    -0.045
   Fe_diOH+              1.486e-009  1.339e-009    -8.828    -8.873    -0.045
Fe_tri          1.520e-005
   Fe_tri(OH)2+          1.430e-005  1.288e-005    -4.845    -4.890    -0.045
   Fe_triOH+2            7.720e-007  5.086e-007    -6.112    -6.294    -0.181
   Fe_tri(OH)3           1.266e-007  1.269e-007    -6.897    -6.896     0.001
   Fe_tri+3              2.634e-009  1.030e-009    -8.579    -8.987    -0.408
   Fe_triCl+2            4.330e-010  2.852e-010    -9.364    -9.545    -0.181
   Fe_tri2(OH)2+4        3.697e-011  6.962e-012   -10.432   -11.157    -0.725
   Fe_triCl2+            1.297e-011  1.169e-011   -10.887   -10.932    -0.045
   Fe_tri(OH)4-          9.830e-012  8.856e-012   -11.007   -11.053    -0.045
   Fe_tri3(OH)4+5        2.545e-013  1.874e-014   -12.594   -13.727    -1.133
   Fe_triCl3             1.069e-014  1.072e-014   -13.971   -13.970     0.001
H(0)            0.000e+000
   H2                    0.000e+000  0.000e+000   -44.410   -44.409     0.001
Na              1.000e-002
   Na+                   1.000e-002  9.020e-003    -2.000    -2.045    -0.045
   NaOH                  4.548e-012  4.558e-012   -11.342   -11.341     0.001
O(0)            5.466e-004
   O2                    2.733e-004  2.739e-004    -3.563    -3.562     0.001

------------------------------Saturation indices-------------------------------

	Phase               SI log IAP  log KT

	Goethite          6.66    5.66   -1.00  Fe_triOOH
	H2(g)           -41.26  -44.41   -3.15  H2
	H2O(g)           -1.51   -0.00    1.51  H2O
	Halite           -5.66   -4.08    1.58  NaCl
	O2(g)            -0.67   -3.56   -2.89  O2

Reaction step 9.

Using solution 1.	
Using pure phase assemblage 1.	
Using kinetics 1.	Kinetics defined in simulation 2.

Kinetics 1.	Kinetics defined in simulation 2.

	Time step: 172800 seconds  (Incremented time: 518400 seconds)

	Rate name       Delta Moles Total Moles   Reactant        Coefficient

	Fe_di_ox        -2.154e-006  1.000e+000   Fe_di                    -1
	                                          Fe_tri                    1

-------------------------------Phase assemblage--------------------------------

                                                      Moles in assemblage
Phase                  SI log IAP  log KT      Initial       Final       Delta

O2(g)               -0.67   -3.56   -2.89   1.000e+001  1.000e+001 -5.385e-007

-----------------------------Solution composition------------------------------

	Elements           Molality       Moles

	Cl               1.020e-002  1.020e-002
	Fe_di            8.265e-005  8.265e-005
	Fe_tri           1.735e-005  1.735e-005
	Na               1.000e-002  1.000e-002

----------------------------Description of solution----------------------------

                                       pH  =   4.829      Charge balance
                                       pe  =  15.801      Adjusted to redox equilibrium
       Specific Conductance (uS/cm, 25 oC) = 1204
                          Density (g/cm3)  =   0.99748
                        Activity of water  =   1.000
                           Ionic strength  =  1.028e-002
                       Mass of water (kg)  =  1.000e+000
                 Total alkalinity (eq/kg)  =  1.759e-005
                    Total carbon (mol/kg)  =  0.000e+000
                       Total CO2 (mol/kg)  =  0.000e+000
                      Temperature (deg C)  =  25.000
                  Electrical balance (eq)  =  4.857e-014
 Percent error, 100*(Cat-|An|)/(Cat+|An|)  =   0.00
                               Iterations  =  26
                                  Total H  = 1.110124e+002
                                  Total O  = 5.550677e+001

----------------------------Distribution of species----------------------------

                                                   Log       Log         Log 
   Species                 Molality    Activity  Molality  Activity     Gamma

   H+                    1.625e-005  1.483e-005    -4.789    -4.829    -0.040
   OH-                   7.507e-010  6.749e-010    -9.125    -9.171    -0.046
   H2O                   5.551e+001  9.996e-001     1.744    -0.000     0.000
Cl              1.020e-002
   Cl-                   1.020e-002  9.172e-003    -1.991    -2.038    -0.046
   Fe_diCl+              7.581e-007  6.830e-007    -6.120    -6.166    -0.045
   Fe_triCl+2            6.327e-010  4.168e-010    -9.199    -9.380    -0.181
   Fe_triCl2+            1.895e-011  1.707e-011   -10.722   -10.768    -0.045
   Fe_triCl3             1.562e-014  1.566e-014   -13.806   -13.805     0.001
Fe_di           8.265e-005
   Fe_di+2               8.189e-005  5.394e-005    -4.087    -4.268    -0.181
   Fe_diCl+              7.581e-007  6.830e-007    -6.120    -6.166    -0.045
   Fe_diOH+              1.277e-009  1.150e-009    -8.894    -8.939    -0.045
Fe_tri          1.735e-005
   Fe_tri(OH)2+          1.623e-005  1.462e-005    -4.790    -4.835    -0.045
   Fe_triOH+2            9.942e-007  6.549e-007    -6.003    -6.184    -0.181
   Fe_tri(OH)3           1.267e-007  1.270e-007    -6.897    -6.896     0.001
   Fe_tri+3              3.849e-009  1.505e-009    -8.415    -8.823    -0.408
   Fe_triCl+2            6.327e-010  4.168e-010    -9.199    -9.380    -0.181
   Fe_tri2(OH)2+4        6.130e-011  1.155e-011   -10.213   -10.938    -0.725
   Fe_triCl2+            1.895e-011  1.707e-011   -10.722   -10.768    -0.045
   Fe_tri(OH)4-          8.666e-012  7.807e-012   -11.062   -11.108    -0.045
   Fe_tri3(OH)4+5        4.790e-013  3.527e-014   -12.320   -13.453    -1.133
   Fe_triCl3             1.562e-014  1.566e-014   -13.806   -13.805     0.001
H(0)            0.000e+000
   H2                    0.000e+000  0.000e+000   -44.410   -44.409     0.001
Na              1.000e-002
   Na+                   1.000e-002  9.020e-003    -2.000    -2.045    -0.045
   NaOH                  4.008e-012  4.018e-012   -11.397   -11.396     0.001
O(0)            5.466e-004
   O2                    2.733e-004  2.739e-004    -3.563    -3.562     0.001

------------------------------Saturation indices-------------------------------

	Phase               SI log IAP  log KT

	Goethite          6.66    5.66   -1.00  Fe_triOOH
	H2(g)           -41.26  -44.41   -3.15  H2
	H2O(g)           -1.51   -0.00    1.51  H2O
	Halite           -5.66   -4.08    1.58  NaCl
	O2(g)            -0.67   -3.56   -2.89  O2

Reaction step 10.

Using solution 1.	
Using pure phase assemblage 1.	
Using kinetics 1.	Kinetics defined in simulation 2.

Kinetics 1.	Kinetics defined in simulation 2.

	Time step: 172800 seconds  (Incremented time: 691200 seconds)

	Rate name       Delta Moles Total Moles   Reactant        Coefficient

	Fe_di_ox        -1.705e-006  1.000e+000   Fe_di                    -1
	                                          Fe_tri                    1

-------------------------------Phase assemblage--------------------------------

                                                      Moles in assemblage
Phase                  SI log IAP  log KT      Initial       Final       Delta

O2(g)               -0.67   -3.56   -2.89   1.000e+001  1.000e+001 -4.263e-007

-----------------------------Solution composition------------------------------

	Elements           Molality       Moles

	Cl               1.020e-002  1.020e-002
	Fe_di            8.094e-005  8.094e-005
	Fe_tri           1.906e-005  1.906e-005
	Na               1.000e-002  1.000e-002

----------------------------Description of solution----------------------------

                                       pH  =   4.790      Charge balance
                                       pe  =  15.839      Adjusted to redox equilibrium
       Specific Conductance (uS/cm, 25 oC) = 1205
                          Density (g/cm3)  =   0.99748
                        Activity of water  =   1.000
                           Ionic strength  =  1.028e-002
                       Mass of water (kg)  =  1.000e+000
                 Total alkalinity (eq/kg)  =  1.929e-005
                    Total carbon (mol/kg)  =  0.000e+000
                       Total CO2 (mol/kg)  =  0.000e+000
                      Temperature (deg C)  =  25.000
                  Electrical balance (eq)  =  5.156e-014
 Percent error, 100*(Cat-|An|)/(Cat+|An|)  =   0.00
                               Iterations  =  20
                                  Total H  = 1.110124e+002
                                  Total O  = 5.550677e+001

----------------------------Distribution of species----------------------------

                                                   Log       Log         Log 
   Species                 Molality    Activity  Molality  Activity     Gamma

   H+                    1.776e-005  1.620e-005    -4.751    -4.790    -0.040
   OH-                   6.870e-010  6.176e-010    -9.163    -9.209    -0.046
   H2O                   5.551e+001  9.996e-001     1.744    -0.000     0.000
Cl              1.020e-002
   Cl-                   1.020e-002  9.172e-003    -1.991    -2.038    -0.046
   Fe_diCl+              7.425e-007  6.689e-007    -6.129    -6.175    -0.045
   Fe_triCl+2            8.259e-010  5.441e-010    -9.083    -9.264    -0.181
   Fe_triCl2+            2.474e-011  2.229e-011   -10.607   -10.652    -0.045
   Fe_triCl3             2.040e-014  2.044e-014   -13.690   -13.689     0.001
Fe_di           8.094e-005
   Fe_di+2               8.020e-005  5.283e-005    -4.096    -4.277    -0.181
   Fe_diCl+              7.425e-007  6.689e-007    -6.129    -6.175    -0.045
   Fe_diOH+              1.144e-009  1.031e-009    -8.942    -8.987    -0.045
Fe_tri          1.906e-005
   Fe_tri(OH)2+          1.774e-005  1.598e-005    -4.751    -4.796    -0.045
   Fe_triOH+2            1.188e-006  7.823e-007    -5.925    -6.107    -0.181
   Fe_tri(OH)3           1.267e-007  1.270e-007    -6.897    -6.896     0.001
   Fe_tri+3              5.024e-009  1.964e-009    -8.299    -8.707    -0.408
   Fe_triCl+2            8.259e-010  5.441e-010    -9.083    -9.264    -0.181
   Fe_tri2(OH)2+4        8.746e-011  1.647e-011   -10.058   -10.783    -0.725
   Fe_triCl2+            2.474e-011  2.229e-011   -10.607   -10.652    -0.045
   Fe_tri(OH)4-          7.931e-012  7.145e-012   -11.101   -11.146    -0.045
   Fe_tri3(OH)4+5        7.469e-013  5.500e-014   -12.127   -13.260    -1.133
   Fe_triCl3             2.040e-014  2.044e-014   -13.690   -13.689     0.001
H(0)            0.000e+000
   H2                    0.000e+000  0.000e+000   -44.410   -44.409     0.001
Na              1.000e-002
   Na+                   1.000e-002  9.020e-003    -2.000    -2.045    -0.045
   NaOH                  3.668e-012  3.676e-012   -11.436   -11.435     0.001
O(0)            5.466e-004
   O2                    2.733e-004  2.739e-004    -3.563    -3.562     0.001

------------------------------Saturation indices-------------------------------

	Phase               SI log IAP  log KT

	Goethite          6.66    5.66   -1.00  Fe_triOOH
	H2(g)           -41.26  -44.41   -3.15  H2
	H2O(g)           -1.51   -0.00    1.51  H2O
	Halite           -5.66   -4.08    1.58  NaCl
	O2(g)            -0.67   -3.56   -2.89  O2

Reaction step 11.

Using solution 1.	
Using pure phase assemblage 1.	
Using kinetics 1.	Kinetics defined in simulation 2.

Kinetics 1.	Kinetics defined in simulation 2.

	Time step: 172800 seconds  (Incremented time: 864000 seconds)

	Rate name       Delta Moles Total Moles   Reactant        Coefficient

	Fe_di_ox        -1.434e-006  1.000e+000   Fe_di                    -1
	                                          Fe_tri                    1

-------------------------------Phase assemblage--------------------------------

                                                      Moles in assemblage
Phase                  SI log IAP  log KT      Initial       Final       Delta

O2(g)               -0.67   -3.56   -2.89   1.000e+001  1.000e+001 -3.587e-007

-----------------------------Solution composition------------------------------

	Elements           Molality       Moles

	Cl               1.020e-002  1.020e-002
	Fe_di            7.951e-005  7.951e-005
	Fe_tri           2.049e-005  2.049e-005
	Na               1.000e-002  1.000e-002

----------------------------Description of solution----------------------------

                                       pH  =   4.761      Charge balance
                                       pe  =  15.869      Adjusted to redox equilibrium
       Specific Conductance (uS/cm, 25 oC) = 1205
                          Density (g/cm3)  =   0.99748
                        Activity of water  =   1.000
                           Ionic strength  =  1.028e-002
                       Mass of water (kg)  =  1.000e+000
                 Total alkalinity (eq/kg)  =  2.072e-005
                    Total carbon (mol/kg)  =  0.000e+000
                       Total CO2 (mol/kg)  =  0.000e+000
                      Temperature (deg C)  =  25.000
                  Electrical balance (eq)  =  5.196e-014
 Percent error, 100*(Cat-|An|)/(Cat+|An|)  =   0.00
                               Iterations  =  20
                                  Total H  = 1.110124e+002
                                  Total O  = 5.550677e+001

----------------------------Distribution of species----------------------------

                                                   Log       Log         Log 
   Species                 Molality    Activity  Molality  Activity     Gamma

   H+                    1.901e-005  1.735e-005    -4.721    -4.761    -0.040
   OH-                   6.415e-010  5.767e-010    -9.193    -9.239    -0.046
   H2O                   5.551e+001  9.996e-001     1.744    -0.000     0.000
Cl              1.020e-002
   Cl-                   1.020e-002  9.172e-003    -1.991    -2.038    -0.046
   Fe_diCl+              7.293e-007  6.571e-007    -6.137    -6.182    -0.045
   Fe_triCl+2            1.014e-009  6.681e-010    -8.994    -9.175    -0.181
   Fe_triCl2+            3.038e-011  2.737e-011   -10.517   -10.563    -0.045
   Fe_triCl3             2.505e-014  2.511e-014   -13.601   -13.600     0.001
Fe_di           7.951e-005
   Fe_di+2               7.878e-005  5.190e-005    -4.104    -4.285    -0.181
   Fe_diCl+              7.293e-007  6.571e-007    -6.137    -6.182    -0.045
   Fe_diOH+              1.049e-009  9.455e-010    -8.979    -9.024    -0.045
Fe_tri          2.049e-005
   Fe_tri(OH)2+          1.900e-005  1.712e-005    -4.721    -4.767    -0.045
   Fe_triOH+2            1.362e-006  8.972e-007    -5.866    -6.047    -0.181
   Fe_tri(OH)3           1.267e-007  1.270e-007    -6.897    -6.896     0.001
   Fe_tri+3              6.169e-009  2.412e-009    -8.210    -8.618    -0.408
   Fe_triCl+2            1.014e-009  6.681e-010    -8.994    -9.175    -0.181
   Fe_tri2(OH)2+4        1.150e-010  2.167e-011    -9.939   -10.664    -0.725
   Fe_triCl2+            3.038e-011  2.737e-011   -10.517   -10.563    -0.045
   Fe_tri(OH)4-          7.408e-012  6.674e-012   -11.130   -11.176    -0.045
   Fe_tri3(OH)4+5        1.052e-012  7.747e-014   -11.978   -13.111    -1.133
   Fe_triCl3             2.505e-014  2.511e-014   -13.601   -13.600     0.001
H(0)            0.000e+000
   H2                    0.000e+000  0.000e+000   -44.410   -44.409     0.001
Na              1.000e-002
   Na+                   1.000e-002  9.020e-003    -2.000    -2.045    -0.045
   NaOH                  3.425e-012  3.433e-012   -11.465   -11.464     0.001
O(0)            5.466e-004
   O2                    2.733e-004  2.739e-004    -3.563    -3.562     0.001

------------------------------Saturation indices-------------------------------

	Phase               SI log IAP  log KT

	Goethite          6.66    5.66   -1.00  Fe_triOOH
	H2(g)           -41.26  -44.41   -3.15  H2
	H2O(g)           -1.51   -0.00    1.51  H2O
	Halite           -5.66   -4.08    1.58  NaCl
	O2(g)            -0.67   -3.56   -2.89  O2

------------------
End of simulation.
------------------

------------------------------------
Reading input data for simulation 3.
------------------------------------

-----------
End of run.
-----------

