   Input file: i6
  Output file: i6.out
Database file: ../database/phreeqc.dat

------------------
Reading data base.
------------------

	SOLUTION_MASTER_SPECIES
	SOLUTION_SPECIES
	PHASES
	EXCHANGE_MASTER_SPECIES
	EXCHANGE_SPECIES
	SURFACE_MASTER_SPECIES
	SURFACE_SPECIES
	RATES
	END
------------------------------------
Reading input data for simulation 1.
------------------------------------

	DATABASE ../database/phreeqc.dat
	SOLUTION 0
	 Na 1e-3
	 Cl 1e-3 charge
	SOLUTION 1-2
	 pH 7 charge             # mobile cells
	SOLUTION 4-6
	 pH 7 charge
	 water 0.5  # Immobile cells. Note that MCD adds absolute moles,
	SOLUTION 8
	 pH 7 charge
	 water 0.25   # water is adapted to match the conc'n changes
	SELECTED_OUTPUT
	 high_precision true        # ...for obtaining charge balance
	EXCHANGE 1-8
	 CaX2 1
	END          
-------------------------------------------
Beginning of initial solution calculations.
-------------------------------------------

Initial solution 0.	

-----------------------------Solution composition------------------------------

	Elements           Molality       Moles

	Cl               9.999e-007  9.999e-007  Charge balance
	Na               1.000e-006  1.000e-006

----------------------------Description of solution----------------------------

                                       pH  =   7.000    
                                       pe  =   4.000    
       Specific Conductance (uS/cm, 25 oC) = 0
                          Density (g/cm3)  =   0.99705
                        Activity of water  =   1.000
                           Ionic strength  =  1.100e-006
                       Mass of water (kg)  =  1.000e+000
                 Total alkalinity (eq/kg)  =  1.085e-010
                    Total carbon (mol/kg)  =  0.000e+000
                       Total CO2 (mol/kg)  =  0.000e+000
                      Temperature (deg C)  =  25.000
                  Electrical balance (eq)  =  8.603e-022
 Percent error, 100*(Cat-|An|)/(Cat+|An|)  =   0.00
                               Iterations  =   9
                                  Total H  = 1.110124e+002
                                  Total O  = 5.550622e+001

----------------------------Distribution of species----------------------------

                                                   Log       Log         Log 
   Species                 Molality    Activity  Molality  Activity     Gamma

   OH-                   1.002e-007  1.001e-007    -6.999    -7.000    -0.001
   H+                    1.001e-007  1.000e-007    -6.999    -7.000    -0.001
   H2O                   5.551e+001  1.000e+000     1.744    -0.000     0.000
Cl              9.999e-007
   Cl-                   9.999e-007  9.987e-007    -6.000    -6.001    -0.001
H(0)            1.416e-025
   H2                    7.079e-026  7.079e-026   -25.150   -25.150     0.000
Na              1.000e-006
   Na+                   1.000e-006  9.988e-007    -6.000    -6.001    -0.001
   NaOH                  6.599e-014  6.599e-014   -13.181   -13.181     0.000
O(0)            0.000e+000
   O2                    0.000e+000  0.000e+000   -42.080   -42.080     0.000

------------------------------Saturation indices-------------------------------

	Phase               SI log IAP  log KT

	H2(g)           -22.00  -25.15   -3.15  H2
	H2O(g)           -1.51   -0.00    1.51  H2O
	Halite          -13.58  -12.00    1.58  NaCl
	O2(g)           -39.19  -42.08   -2.89  O2

Initial solution 1.	

-----------------------------Solution composition------------------------------

	Elements           Molality       Moles

	Pure water     

----------------------------Description of solution----------------------------

                                       pH  =   7.000      Charge balance
                                       pe  =   4.000    
       Specific Conductance (uS/cm, 25 oC) = 0
                          Density (g/cm3)  =   0.99705
                        Activity of water  =   1.000
                           Ionic strength  =  1.001e-007
                       Mass of water (kg)  =  1.000e+000
                 Total alkalinity (eq/kg)  =  0.000e+000
                    Total carbon (mol/kg)  =  0.000e+000
                       Total CO2 (mol/kg)  =  0.000e+000
                      Temperature (deg C)  =  25.000
                  Electrical balance (eq)  =  0.000e+000
 Percent error, 100*(Cat-|An|)/(Cat+|An|)  =   0.00
                               Iterations  =   3
                                  Total H  = 1.110124e+002
                                  Total O  = 5.550622e+001

----------------------------Distribution of species----------------------------

                                                   Log       Log         Log 
   Species                 Molality    Activity  Molality  Activity     Gamma

   H+                    1.001e-007  1.001e-007    -7.000    -7.000    -0.000
   OH-                   1.001e-007  1.001e-007    -7.000    -7.000    -0.000
   H2O                   5.551e+001  1.000e+000     1.744    -0.000     0.000
H(0)            1.417e-025
   H2                    7.087e-026  7.087e-026   -25.150   -25.150     0.000
O(0)            0.000e+000
   O2                    0.000e+000  0.000e+000   -42.081   -42.081     0.000

------------------------------Saturation indices-------------------------------

	Phase               SI log IAP  log KT

	H2(g)           -22.00  -25.15   -3.15  H2
	H2O(g)           -1.51   -0.00    1.51  H2O
	O2(g)           -39.19  -42.08   -2.89  O2

Initial solution 4.	

-----------------------------Solution composition------------------------------

	Elements           Molality       Moles

	Pure water     

----------------------------Description of solution----------------------------

                                       pH  =   7.000      Charge balance
                                       pe  =   4.000    
       Specific Conductance (uS/cm, 25 oC) = 0
                          Density (g/cm3)  =   0.99705
                        Activity of water  =   1.000
                           Ionic strength  =  1.001e-007
                       Mass of water (kg)  =  5.000e-001
                 Total alkalinity (eq/kg)  =  0.000e+000
                    Total carbon (mol/kg)  =  0.000e+000
                       Total CO2 (mol/kg)  =  0.000e+000
                      Temperature (deg C)  =  25.000
                  Electrical balance (eq)  =  0.000e+000
 Percent error, 100*(Cat-|An|)/(Cat+|An|)  =   0.00
                               Iterations  =   3
                                  Total H  = 5.550622e+001
                                  Total O  = 2.775311e+001

----------------------------Distribution of species----------------------------

                                                   Log       Log         Log 
   Species                 Molality    Activity  Molality  Activity     Gamma

   H+                    1.001e-007  1.001e-007    -7.000    -7.000    -0.000
   OH-                   1.001e-007  1.001e-007    -7.000    -7.000    -0.000
   H2O                   5.551e+001  1.000e+000     1.744    -0.000     0.000
H(0)            1.417e-025
   H2                    7.087e-026  7.087e-026   -25.150   -25.150     0.000
O(0)            0.000e+000
   O2                    0.000e+000  0.000e+000   -42.081   -42.081     0.000

------------------------------Saturation indices-------------------------------

	Phase               SI log IAP  log KT

	H2(g)           -22.00  -25.15   -3.15  H2
	H2O(g)           -1.51   -0.00    1.51  H2O
	O2(g)           -39.19  -42.08   -2.89  O2

Initial solution 8.	

-----------------------------Solution composition------------------------------

	Elements           Molality       Moles

	Pure water     

----------------------------Description of solution----------------------------

                                       pH  =   7.000      Charge balance
                                       pe  =   4.000    
       Specific Conductance (uS/cm, 25 oC) = 0
                          Density (g/cm3)  =   0.99705
                        Activity of water  =   1.000
                           Ionic strength  =  1.001e-007
                       Mass of water (kg)  =  2.500e-001
                 Total alkalinity (eq/kg)  =  0.000e+000
                    Total carbon (mol/kg)  =  0.000e+000
                       Total CO2 (mol/kg)  =  0.000e+000
                      Temperature (deg C)  =  25.000
                  Electrical balance (eq)  =  0.000e+000
 Percent error, 100*(Cat-|An|)/(Cat+|An|)  =   0.00
                               Iterations  =   3
                                  Total H  = 2.775311e+001
                                  Total O  = 1.387655e+001

----------------------------Distribution of species----------------------------

                                                   Log       Log         Log 
   Species                 Molality    Activity  Molality  Activity     Gamma

   H+                    1.001e-007  1.001e-007    -7.000    -7.000    -0.000
   OH-                   1.001e-007  1.001e-007    -7.000    -7.000    -0.000
   H2O                   5.551e+001  1.000e+000     1.744    -0.000     0.000
H(0)            1.417e-025
   H2                    7.087e-026  7.087e-026   -25.150   -25.150     0.000
O(0)            0.000e+000
   O2                    0.000e+000  0.000e+000   -42.081   -42.081     0.000

------------------------------Saturation indices-------------------------------

	Phase               SI log IAP  log KT

	H2(g)           -22.00  -25.15   -3.15  H2
	H2O(g)           -1.51   -0.00    1.51  H2O
	O2(g)           -39.19  -42.08   -2.89  O2

-----------------------------------------
Beginning of batch-reaction calculations.
-----------------------------------------

Reaction step 1.

Using solution 0.	
Using exchange 1.	

-----------------------------Exchange composition------------------------------

X               2.000e+000 mol

	                               Equiv-    Equivalent      Log 
	Species             Moles      alents      Fraction     Gamma

	CaX2             1.000e+000  2.000e+000  1.000e+000    -0.003
	NaX              9.991e-007  9.991e-007  4.996e-007    -0.001

-----------------------------Solution composition------------------------------

	Elements           Molality       Moles

	Ca               4.996e-007  4.996e-007
	Cl               9.999e-007  9.999e-007
	Na               8.869e-010  8.869e-010

----------------------------Description of solution----------------------------

                                       pH  =   7.000      Charge balance
                                       pe  =  -1.479      Adjusted to redox equilibrium
       Specific Conductance (uS/cm, 25 oC) = 0
                          Density (g/cm3)  =   0.99705
                        Activity of water  =   1.000
                           Ionic strength  =  1.600e-006
                       Mass of water (kg)  =  1.000e+000
                 Total alkalinity (eq/kg)  =  1.085e-010
                    Total carbon (mol/kg)  =  0.000e+000
                       Total CO2 (mol/kg)  =  0.000e+000
                      Temperature (deg C)  =  25.000
                  Electrical balance (eq)  =  1.324e-018
 Percent error, 100*(Cat-|An|)/(Cat+|An|)  =   0.00
                               Iterations  =  24
                                  Total H  = 1.110124e+002
                                  Total O  = 5.550622e+001

----------------------------Distribution of species----------------------------

                                                   Log       Log         Log 
   Species                 Molality    Activity  Molality  Activity     Gamma

   OH-                   1.003e-007  1.001e-007    -6.999    -7.000    -0.001
   H+                    1.001e-007  1.000e-007    -6.999    -7.000    -0.001
   H2O                   5.551e+001  1.000e+000     1.744    -0.000     0.000
Ca              4.996e-007
   Ca+2                  4.996e-007  4.966e-007    -6.301    -6.304    -0.003
   CaOH+                 8.254e-013  8.242e-013   -12.083   -12.084    -0.001
Cl              9.999e-007
   Cl-                   9.999e-007  9.984e-007    -6.000    -6.001    -0.001
H(0)            1.283e-014
   H2                    6.416e-015  6.416e-015   -14.193   -14.193     0.000
Na              8.869e-010
   Na+                   8.869e-010  8.856e-010    -9.052    -9.053    -0.001
   NaOH                  5.851e-017  5.851e-017   -16.233   -16.233     0.000
O(0)            0.000e+000
   O2                    0.000e+000  0.000e+000   -63.994   -63.994     0.000

------------------------------Saturation indices-------------------------------

	Phase               SI log IAP  log KT

	H2(g)           -11.04  -14.19   -3.15  H2
	H2O(g)           -1.51   -0.00    1.51  H2O
	Halite          -16.64  -15.05    1.58  NaCl
	O2(g)           -61.10  -63.99   -2.89  O2

------------------
End of simulation.
------------------

------------------------------------
Reading input data for simulation 2.
------------------------------------

	MIX 1
	 4 0.03                         # Note to take small fractions if
	MIX 4
	 6 0.03
	 8 0.03                 #    Dw(H+) = 10 * default_Dw
	MIX 2
	 5 0.02
	END
-----------------------------------------
Beginning of batch-reaction calculations.
-----------------------------------------

Reaction step 1.

Using mix 1.	

Mixture 1.	

	 3.000e-002 Solution 4	                                                       

-----------------------------Solution composition------------------------------

	Elements           Molality       Moles

	Pure water     

----------------------------Description of solution----------------------------

                                       pH  =   7.000      Charge balance
                                       pe  =   4.000      Adjusted to redox equilibrium
       Specific Conductance (uS/cm, 25 oC) = 0
                          Density (g/cm3)  =   0.99705
                        Activity of water  =   1.000
                           Ionic strength  =  1.001e-007
                       Mass of water (kg)  =  1.500e-002
                 Total alkalinity (eq/kg)  =  1.930e-022
                    Total carbon (mol/kg)  =  0.000e+000
                       Total CO2 (mol/kg)  =  0.000e+000
                      Temperature (deg C)  =  25.000
                  Electrical balance (eq)  = -2.895e-024
 Percent error, 100*(Cat-|An|)/(Cat+|An|)  =  -0.00
                               Iterations  =   0
                                  Total H  = 1.665187e+000
                                  Total O  = 8.325933e-001

----------------------------Distribution of species----------------------------

                                                   Log       Log         Log 
   Species                 Molality    Activity  Molality  Activity     Gamma

   OH-                   1.001e-007  1.001e-007    -7.000    -7.000    -0.000
   H+                    1.001e-007  1.001e-007    -7.000    -7.000    -0.000
   H2O                   5.551e+001  1.000e+000     1.744    -0.000     0.000
H(0)            1.417e-025
   H2                    7.087e-026  7.087e-026   -25.150   -25.150     0.000
O(0)            0.000e+000
   O2                    0.000e+000  0.000e+000   -42.081   -42.081     0.000

------------------------------Saturation indices-------------------------------

	Phase               SI log IAP  log KT

	H2(g)           -22.00  -25.15   -3.15  H2
	H2O(g)           -1.51   -0.00    1.51  H2O
	O2(g)           -39.19  -42.08   -2.89  O2

------------------
End of simulation.
------------------

------------------------------------
Reading input data for simulation 3.
------------------------------------

	PRINT
	 reset false
WARNING: No cell-lengths were read; length = 1 m assumed.
WARNING: No dispersivities were read; disp = 0 assumed.
