   Input file: krest
  Output file: krest.out
Database file: ../database/phreeqc.dat

------------------
Reading data base.
------------------

	SOLUTION_MASTER_SPECIES
	SOLUTION_SPECIES
	PHASES
	EXCHANGE_MASTER_SPECIES
	EXCHANGE_SPECIES
	SURFACE_MASTER_SPECIES
	SURFACE_SPECIES
	RATES
	END
------------------------------------
Reading input data for simulation 1.
------------------------------------

	DATABASE ../database/phreeqc.dat
	SURFACE_MASTER_SPECIES
		Solid	Solid
	SURFACE_SPECIES
		Solid = Solid
		log_k 0
		Solid + [224Ra] = Solid[224Ra]
		log_k	-98.7	# log(Kd) - 100
	SOLUTION_MASTER_SPECIES
		[224Ra]	[224Ra]	0	224	224
	SOLUTION_SPECIES
		[224Ra] = [224Ra]
		log_k	0.0
	RATES
		Add_Ra
	start
	10 rate = 1 / (24*3600)   # 1/day
	20 moles = parm(1) * rate * TIME
	30 save moles
	end
		Decay_Ra
	start
	10 k = .189 / (24*3600)  # 3.66 day half life
	20 total_224Ra = TOT("[224Ra]") + MOL("Solid[224Ra]")
	30 rate = -k*total_224Ra
	40 moles = rate*TIME
	50 save moles
	end
	END
------------------
End of simulation.
------------------

------------------------------------
Reading input data for simulation 2.
------------------------------------

	SOLUTION 1-45
		pH 7
		C	1
		Ca	1	charge
	END
-------------------------------------------
Beginning of initial solution calculations.
-------------------------------------------

Initial solution 1.	

-----------------------------Solution composition------------------------------

	Elements           Molality       Moles

	C                1.000e-003  1.000e-003
	Ca               4.118e-004  4.118e-004  Charge balance

----------------------------Description of solution----------------------------

                                       pH  =   7.000    
                                       pe  =   4.000    
       Specific Conductance (uS/cm, 25 oC) = 81
                          Density (g/cm3)  =   0.99710
                        Activity of water  =   1.000
                           Ionic strength  =  1.228e-003
                       Mass of water (kg)  =  1.000e+000
                 Total alkalinity (eq/kg)  =  8.236e-004
                       Total CO2 (mol/kg)  =  1.000e-003
                      Temperature (deg C)  =  25.000
                  Electrical balance (eq)  =  1.025e-011
 Percent error, 100*(Cat-|An|)/(Cat+|An|)  =   0.00
                               Iterations  =   7
                                  Total H  = 1.110133e+002
                                  Total O  = 5.550904e+001

----------------------------Distribution of species----------------------------

                                                   Log       Log         Log 
   Species                 Molality    Activity  Molality  Activity     Gamma

   OH-                   1.041e-007  1.001e-007    -6.982    -7.000    -0.017
   H+                    1.038e-007  1.000e-007    -6.984    -7.000    -0.016
   H2O                   5.551e+001  1.000e+000     1.744    -0.000     0.000
C(-4)           0.000e+000
   CH4                   0.000e+000  0.000e+000   -67.362   -67.362     0.000
C(4)            1.000e-003
   HCO3-                 8.187e-004  7.876e-004    -3.087    -3.104    -0.017
   CO2                   1.770e-004  1.771e-004    -3.752    -3.752     0.000
   CaHCO3+               3.649e-006  3.511e-006    -5.438    -5.455    -0.017
   CO3-2                 4.312e-007  3.694e-007    -6.365    -6.433    -0.067
   CaCO3                 2.167e-007  2.168e-007    -6.664    -6.664     0.000
Ca              4.118e-004
   Ca+2                  4.079e-004  3.494e-004    -3.389    -3.457    -0.067
   CaHCO3+               3.649e-006  3.511e-006    -5.438    -5.455    -0.017
   CaCO3                 2.167e-007  2.168e-007    -6.664    -6.664     0.000
   CaOH+                 6.030e-010  5.798e-010    -9.220    -9.237    -0.017
H(0)            1.415e-025
   H2                    7.077e-026  7.079e-026   -25.150   -25.150     0.000
O(0)            0.000e+000
   O2                    0.000e+000  0.000e+000   -42.080   -42.080     0.000

------------------------------Saturation indices-------------------------------

	Phase               SI log IAP  log KT

	Aragonite        -1.55   -9.89   -8.34  CaCO3
	Calcite          -1.41   -9.89   -8.48  CaCO3
	CH4(g)          -64.50  -67.36   -2.86  CH4
	CO2(g)           -2.28   -3.75   -1.47  CO2
	H2(g)           -22.00  -25.15   -3.15  H2
	H2O(g)           -1.51   -0.00    1.51  H2O
	O2(g)           -39.19  -42.08   -2.89  O2

------------------
End of simulation.
------------------

------------------------------------
Reading input data for simulation 3.
------------------------------------

	SOLUTION 46
		pH 7
		C	1
		Ca	1	charge
		[224Ra]	70e-8 mol/kgw
		Cl	1
	END
-------------------------------------------
Beginning of initial solution calculations.
-------------------------------------------

Initial solution 46.	

-----------------------------Solution composition------------------------------

	Elements           Molality       Moles

	[224Ra]          7.000e-007  7.000e-007
	C                1.000e-003  1.000e-003
	Ca               9.136e-004  9.136e-004  Charge balance
	Cl               1.000e-003  1.000e-003

----------------------------Description of solution----------------------------

                                       pH  =   7.000    
                                       pe  =   4.000    
       Specific Conductance (uS/cm, 25 oC) = 207
                          Density (g/cm3)  =   0.99715
                        Activity of water  =   1.000
                           Ionic strength  =  2.725e-003
                       Mass of water (kg)  =  1.000e+000
                 Total alkalinity (eq/kg)  =  8.271e-004
                       Total CO2 (mol/kg)  =  1.000e-003
                      Temperature (deg C)  =  25.000
                  Electrical balance (eq)  =  8.603e-017
 Percent error, 100*(Cat-|An|)/(Cat+|An|)  =   0.00
                               Iterations  =   9
                                  Total H  = 1.110133e+002
                                  Total O  = 5.550904e+001

----------------------------Distribution of species----------------------------

                                                   Log       Log         Log 
   Species                 Molality    Activity  Molality  Activity     Gamma

   OH-                   1.061e-007  1.001e-007    -6.974    -7.000    -0.025
   H+                    1.054e-007  1.000e-007    -6.977    -7.000    -0.023
   H2O                   5.551e+001  1.000e+000     1.744    -0.000     0.000
C(-4)           0.000e+000
   CH4                   0.000e+000  0.000e+000   -67.370   -67.369     0.000
C(4)            1.000e-003
   HCO3-                 8.178e-004  7.732e-004    -3.087    -3.112    -0.024
   CO2                   1.738e-004  1.739e-004    -3.760    -3.760     0.000
   CaHCO3+               7.549e-006  7.137e-006    -5.122    -5.146    -0.024
   CO3-2                 4.537e-007  3.626e-007    -6.343    -6.441    -0.097
   CaCO3                 4.405e-007  4.407e-007    -6.356    -6.356     0.000
Ca              9.136e-004
   Ca+2                  9.056e-004  7.235e-004    -3.043    -3.141    -0.097
   CaHCO3+               7.549e-006  7.137e-006    -5.122    -5.146    -0.024
   CaCO3                 4.405e-007  4.407e-007    -6.356    -6.356     0.000
   CaOH+                 1.271e-009  1.201e-009    -8.896    -8.921    -0.025
Cl              1.000e-003
   Cl-                   1.000e-003  9.440e-004    -3.000    -3.025    -0.025
H(0)            1.415e-025
   H2                    7.075e-026  7.079e-026   -25.150   -25.150     0.000
O(0)            0.000e+000
   O2                    0.000e+000  0.000e+000   -42.080   -42.080     0.000
[224Ra]         7.000e-007
   [224Ra]               7.000e-007  7.004e-007    -6.155    -6.155     0.000

------------------------------Saturation indices-------------------------------

	Phase               SI log IAP  log KT

	Aragonite        -1.25   -9.58   -8.34  CaCO3
	Calcite          -1.10   -9.58   -8.48  CaCO3
	CH4(g)          -64.51  -67.37   -2.86  CH4
	CO2(g)           -2.29   -3.76   -1.47  CO2
	H2(g)           -22.00  -25.15   -3.15  H2
	H2O(g)           -1.51   -0.00    1.51  H2O
	O2(g)           -39.19  -42.08   -2.89  O2

------------------
End of simulation.
------------------

------------------------------------
Reading input data for simulation 4.
------------------------------------

	KINETICS 1-45
		Add_Ra
			formula	[224Ra]
			parms	1e-8
			tol	1e-10
			m	1
		Decay_Ra
			formula	[224Ra]
			tol	1e-10
			m	1
	SURFACE 1-45
		Solid 1e100 1.0 1e100	
	END
------------------
End of simulation.
------------------

------------------------------------
Reading input data for simulation 5.
------------------------------------

	TRANSPORT
		cells			45
		shifts			10
		time_step		72000	# 1/2.4 cm/day * 2 cm * 24*3600 sec/day
		flow_direction		backward
		boundary_conditions	flux	flux
		length			.02
		disp			.005
		diffusion_coefficient	1e-9
	SELECTED_OUTPUT
WARNING: Cell-lengths were read for 1 cells. Last value is used till cell 45.
WARNING: Dispersivities were read for 1 cells. Last value is used till cell 45.
		file 	krest.sel
		reset 	false
		time
		distance
		totals	[224Ra]
	END
------------------------------------
Beginning of transport calculations.
------------------------------------

-------------------------------
Equilibrating initial solutions
-------------------------------

Using solution 1.	
Using surface 1.	

------------------------------Surface composition------------------------------

Solid         
	 0.000e+000  Surface charge, eq
	 0.000e+000  sigma, C/m**2
	 0.000e+000  psi, V
	-0.000e+000  -F*psi/RT
	 1.000e+000  exp(-F*psi/RT)
	 1.000e+000  specific area, m**2/g
	 1.000e+100  m**2 for  1.000e+100 g


Solid         
	 1.000e+100  moles
	                                   Mole                     Log
	Species               Moles    Fraction    Molality    Molality

	Solid            1.000e+100       1.000  1.000e+100     100.000

-----------------------------Solution composition------------------------------

	Elements           Molality       Moles

	C                1.000e-003  1.000e-003
	Ca               4.118e-004  4.118e-004

----------------------------Description of solution----------------------------

                                       pH  =   7.000      Charge balance
                                       pe  =   4.000      Adjusted to redox equilibrium
       Specific Conductance (uS/cm, 25 oC) = 81
                          Density (g/cm3)  =   0.99710
                        Activity of water  =   1.000
                           Ionic strength  =  1.228e-003
                       Mass of water (kg)  =  1.000e+000
                 Total alkalinity (eq/kg)  =  8.236e-004
                       Total CO2 (mol/kg)  =  1.000e-003
                      Temperature (deg C)  =  25.000
                  Electrical balance (eq)  =  1.025e-011
 Percent error, 100*(Cat-|An|)/(Cat+|An|)  =   0.00
                               Iterations  =   0
                                  Total H  = 1.110133e+002
                                  Total O  = 5.550904e+001

----------------------------Distribution of species----------------------------

                                                   Log       Log         Log 
   Species                 Molality    Activity  Molality  Activity     Gamma

   OH-                   1.041e-007  1.001e-007    -6.982    -7.000    -0.017
   H+                    1.038e-007  1.000e-007    -6.984    -7.000    -0.016
   H2O                   5.551e+001  1.000e+000     1.744    -0.000     0.000
C(-4)           0.000e+000
   CH4                   0.000e+000  0.000e+000   -67.362   -67.362     0.000
C(4)            1.000e-003
   HCO3-                 8.187e-004  7.876e-004    -3.087    -3.104    -0.017
   CO2                   1.770e-004  1.771e-004    -3.752    -3.752     0.000
   CaHCO3+               3.649e-006  3.511e-006    -5.438    -5.455    -0.017
   CO3-2                 4.312e-007  3.694e-007    -6.365    -6.433    -0.067
   CaCO3                 2.167e-007  2.168e-007    -6.664    -6.664     0.000
Ca              4.118e-004
   Ca+2                  4.079e-004  3.494e-004    -3.389    -3.457    -0.067
   CaHCO3+               3.649e-006  3.511e-006    -5.438    -5.455    -0.017
   CaCO3                 2.167e-007  2.168e-007    -6.664    -6.664     0.000
   CaOH+                 6.030e-010  5.798e-010    -9.220    -9.237    -0.017
H(0)            1.415e-025
   H2                    7.077e-026  7.079e-026   -25.150   -25.150     0.000
O(0)            0.000e+000
   O2                    0.000e+000  0.000e+000   -42.080   -42.080     0.000

------------------------------Saturation indices-------------------------------

	Phase               SI log IAP  log KT

	Aragonite        -1.55   -9.89   -8.34  CaCO3
	Calcite          -1.41   -9.89   -8.48  CaCO3
	CH4(g)          -64.50  -67.36   -2.86  CH4
	CO2(g)           -2.28   -3.75   -1.47  CO2
	H2(g)           -22.00  -25.15   -3.15  H2
	H2O(g)           -1.51   -0.00    1.51  H2O
	O2(g)           -39.19  -42.08   -2.89  O2

Using solution 2.	
Using surface 2.	Surface defined in simulation 4.

------------------------------Surface composition------------------------------

Solid         
	 0.000e+000  Surface charge, eq
	 0.000e+000  sigma, C/m**2
	 0.000e+000  psi, V
	-0.000e+000  -F*psi/RT
	 1.000e+000  exp(-F*psi/RT)
	 1.000e+000  specific area, m**2/g
	 1.000e+100  m**2 for  1.000e+100 g


Solid         
	 1.000e+100  moles
	                                   Mole                     Log
	Species               Moles    Fraction    Molality    Molality

	Solid            1.000e+100       1.000  1.000e+100     100.000

-----------------------------Solution composition------------------------------

	Elements           Molality       Moles

	C                1.000e-003  1.000e-003
	Ca               4.118e-004  4.118e-004

----------------------------Description of solution----------------------------

                                       pH  =   7.000      Charge balance
                                       pe  =   4.000      Adjusted to redox equilibrium
       Specific Conductance (uS/cm, 25 oC) = 81
                          Density (g/cm3)  =   0.99710
                        Activity of water  =   1.000
                           Ionic strength  =  1.228e-003
                       Mass of water (kg)  =  1.000e+000
                 Total alkalinity (eq/kg)  =  8.236e-004
                       Total CO2 (mol/kg)  =  1.000e-003
                      Temperature (deg C)  =  25.000
                  Electrical balance (eq)  =  1.025e-011
 Percent error, 100*(Cat-|An|)/(Cat+|An|)  =   0.00
                               Iterations  =   0
                                  Total H  = 1.110133e+002
                                  Total O  = 5.550904e+001

----------------------------Distribution of species----------------------------

                                                   Log       Log         Log 
   Species                 Molality    Activity  Molality  Activity     Gamma

   OH-                   1.041e-007  1.001e-007    -6.982    -7.000    -0.017
   H+                    1.038e-007  1.000e-007    -6.984    -7.000    -0.016
   H2O                   5.551e+001  1.000e+000     1.744    -0.000     0.000
C(-4)           0.000e+000
   CH4                   0.000e+000  0.000e+000   -67.362   -67.362     0.000
C(4)            1.000e-003
   HCO3-                 8.187e-004  7.876e-004    -3.087    -3.104    -0.017
   CO2                   1.770e-004  1.771e-004    -3.752    -3.752     0.000
   CaHCO3+               3.649e-006  3.511e-006    -5.438    -5.455    -0.017
   CO3-2                 4.312e-007  3.694e-007    -6.365    -6.433    -0.067
   CaCO3                 2.167e-007  2.168e-007    -6.664    -6.664     0.000
Ca              4.118e-004
   Ca+2                  4.079e-004  3.494e-004    -3.389    -3.457    -0.067
   CaHCO3+               3.649e-006  3.511e-006    -5.438    -5.455    -0.017
   CaCO3                 2.167e-007  2.168e-007    -6.664    -6.664     0.000
   CaOH+                 6.030e-010  5.798e-010    -9.220    -9.237    -0.017
H(0)            1.415e-025
   H2                    7.077e-026  7.079e-026   -25.150   -25.150     0.000
O(0)            0.000e+000
   O2                    0.000e+000  0.000e+000   -42.080   -42.080     0.000

------------------------------Saturation indices-------------------------------

	Phase               SI log IAP  log KT

	Aragonite        -1.55   -9.89   -8.34  CaCO3
	Calcite          -1.41   -9.89   -8.48  CaCO3
	CH4(g)          -64.50  -67.36   -2.86  CH4
	CO2(g)           -2.28   -3.75   -1.47  CO2
	H2(g)           -22.00  -25.15   -3.15  H2
	H2O(g)           -1.51   -0.00    1.51  H2O
	O2(g)           -39.19  -42.08   -2.89  O2

Using solution 3.	
Using surface 3.	Surface defined in simulation 4.

------------------------------Surface composition------------------------------

Solid         
	 0.000e+000  Surface charge, eq
	 0.000e+000  sigma, C/m**2
	 0.000e+000  psi, V
	-0.000e+000  -F*psi/RT
	 1.000e+000  exp(-F*psi/RT)
	 1.000e+000  specific area, m**2/g
	 1.000e+100  m**2 for  1.000e+100 g


Solid         
	 1.000e+100  moles
	                                   Mole                     Log
	Species               Moles    Fraction    Molality    Molality

	Solid            1.000e+100       1.000  1.000e+100     100.000

-----------------------------Solution composition------------------------------

	Elements           Molality       Moles

	C                1.000e-003  1.000e-003
	Ca               4.118e-004  4.118e-004

----------------------------Description of solution----------------------------

                                       pH  =   7.000      Charge balance
                                       pe  =   4.000      Adjusted to redox equilibrium
       Specific Conductance (uS/cm, 25 oC) = 81
                          Density (g/cm3)  =   0.99710
                        Activity of water  =   1.000
                           Ionic strength  =  1.228e-003
                       Mass of water (kg)  =  1.000e+000
                 Total alkalinity (eq/kg)  =  8.236e-004
                       Total CO2 (mol/kg)  =  1.000e-003
                      Temperature (deg C)  =  25.000
                  Electrical balance (eq)  =  1.025e-011
 Percent error, 100*(Cat-|An|)/(Cat+|An|)  =   0.00
                               Iterations  =   0
                                  Total H  = 1.110133e+002
                                  Total O  = 5.550904e+001

----------------------------Distribution of species----------------------------

                                                   Log       Log         Log 
   Species                 Molality    Activity  Molality  Activity     Gamma

   OH-                   1.041e-007  1.001e-007    -6.982    -7.000    -0.017
   H+                    1.038e-007  1.000e-007    -6.984    -7.000    -0.016
   H2O                   5.551e+001  1.000e+000     1.744    -0.000     0.000
C(-4)           0.000e+000
   CH4                   0.000e+000  0.000e+000   -67.362   -67.362     0.000
C(4)            1.000e-003
   HCO3-                 8.187e-004  7.876e-004    -3.087    -3.104    -0.017
   CO2                   1.770e-004  1.771e-004    -3.752    -3.752     0.000
   CaHCO3+               3.649e-006  3.511e-006    -5.438    -5.455    -0.017
   CO3-2                 4.312e-007  3.694e-007    -6.365    -6.433    -0.067
   CaCO3                 2.167e-007  2.168e-007    -6.664    -6.664     0.000
Ca              4.118e-004
   Ca+2                  4.079e-004  3.494e-004    -3.389    -3.457    -0.067
   CaHCO3+               3.649e-006  3.511e-006    -5.438    -5.455    -0.017
   CaCO3                 2.167e-007  2.168e-007    -6.664    -6.664     0.000
   CaOH+                 6.030e-010  5.798e-010    -9.220    -9.237    -0.017
H(0)            1.415e-025
   H2                    7.077e-026  7.079e-026   -25.150   -25.150     0.000
O(0)            0.000e+000
   O2                    0.000e+000  0.000e+000   -42.080   -42.080     0.000

------------------------------Saturation indices-------------------------------

	Phase               SI log IAP  log KT

	Aragonite        -1.55   -9.89   -8.34  CaCO3
	Calcite          -1.41   -9.89   -8.48  CaCO3
	CH4(g)          -64.50  -67.36   -2.86  CH4
	CO2(g)           -2.28   -3.75   -1.47  CO2
	H2(g)           -22.00  -25.15   -3.15  H2
	H2O(g)           -1.51   -0.00    1.51  H2O
	O2(g)           -39.19  -42.08   -2.89  O2

Using solution 4.	
Using surface 4.	Surface defined in simulation 4.

------------------------------Surface composition------------------------------

Solid         
	 0.000e+000  Surface charge, eq
	 0.000e+000  sigma, C/m**2
	 0.000e+000  psi, V
	-0.000e+000  -F*psi/RT
	 1.000e+000  exp(-F*psi/RT)
	 1.000e+000  specific area, m**2/g
	 1.000e+100  m**2 for  1.000e+100 g


Solid         
	 1.000e+100  moles
	                                   Mole                     Log
	Species               Moles    Fraction    Molality    Molality

	Solid            1.000e+100       1.000  1.000e+100     100.000

-----------------------------Solution composition------------------------------

	Elements           Molality       Moles

	C                1.000e-003  1.000e-003
	Ca               4.118e-004  4.118e-004

----------------------------Description of solution----------------------------

                                       pH  =   7.000      Charge balance
                                       pe  =   4.000      Adjusted to redox equilibrium
       Specific Conductance (uS/cm, 25 oC) = 81
                          Density (g/cm3)  =   0.99710
                        Activity of water  =   1.000
                           Ionic strength  =  1.228e-003
                       Mass of water (kg)  =  1.000e+000
                 Total alkalinity (eq/kg)  =  8.236e-004
                       Total CO2 (mol/kg)  =  1.000e-003
                      Temperature (deg C)  =  25.000
                  Electrical balance (eq)  =  1.025e-011
 Percent error, 100*(Cat-|An|)/(Cat+|An|)  =   0.00
                               Iterations  =   0
                                  Total H  = 1.110133e+002
                                  Total O  = 5.550904e+001

----------------------------Distribution of species----------------------------

                                                   Log       Log         Log 
   Species                 Molality    Activity  Molality  Activity     Gamma

   OH-                   1.041e-007  1.001e-007    -6.982    -7.000    -0.017
   H+                    1.038e-007  1.000e-007    -6.984    -7.000    -0.016
   H2O                   5.551e+001  1.000e+000     1.744    -0.000     0.000
C(-4)           0.000e+000
   CH4                   0.000e+000  0.000e+000   -67.362   -67.362     0.000
C(4)            1.000e-003
   HCO3-                 8.187e-004  7.876e-004    -3.087    -3.104    -0.017
   CO2                   1.770e-004  1.771e-004    -3.752    -3.752     0.000
   CaHCO3+               3.649e-006  3.511e-006    -5.438    -5.455    -0.017
   CO3-2                 4.312e-007  3.694e-007    -6.365    -6.433    -0.067
   CaCO3                 2.167e-007  2.168e-007    -6.664    -6.664     0.000
Ca              4.118e-004
   Ca+2                  4.079e-004  3.494e-004    -3.389    -3.457    -0.067
   CaHCO3+               3.649e-006  3.511e-006    -5.438    -5.455    -0.017
   CaCO3                 2.167e-007  2.168e-007    -6.664    -6.664     0.000
   CaOH+                 6.030e-010  5.798e-010    -9.220    -9.237    -0.017
H(0)            1.415e-025
   H2                    7.077e-026  7.079e-026   -25.150   -25.150     0.000
O(0)            0.000e+000
   O2                    0.000e+000  0.000e+000   -42.080   -42.080     0.000

------------------------------Saturation indices-------------------------------

	Phase               SI log IAP  log KT

	Aragonite        -1.55   -9.89   -8.34  CaCO3
	Calcite          -1.41   -9.89   -8.48  CaCO3
	CH4(g)          -64.50  -67.36   -2.86  CH4
	CO2(g)           -2.28   -3.75   -1.47  CO2
	H2(g)           -22.00  -25.15   -3.15  H2
	H2O(g)           -1.51   -0.00    1.51  H2O
	O2(g)           -39.19  -42.08   -2.89  O2

Using solution 5.	
Using surface 5.	Surface defined in simulation 4.

------------------------------Surface composition------------------------------

Solid         
	 0.000e+000  Surface charge, eq
	 0.000e+000  sigma, C/m**2
	 0.000e+000  psi, V
	-0.000e+000  -F*psi/RT
	 1.000e+000  exp(-F*psi/RT)
	 1.000e+000  specific area, m**2/g
	 1.000e+100  m**2 for  1.000e+100 g


Solid         
	 1.000e+100  moles
	                                   Mole                     Log
	Species               Moles    Fraction    Molality    Molality

	Solid            1.000e+100       1.000  1.000e+100     100.000

-----------------------------Solution composition------------------------------

	Elements           Molality       Moles

	C                1.000e-003  1.000e-003
	Ca               4.118e-004  4.118e-004

----------------------------Description of solution----------------------------

                                       pH  =   7.000      Charge balance
                                       pe  =   4.000      Adjusted to redox equilibrium
       Specific Conductance (uS/cm, 25 oC) = 81
                          Density (g/cm3)  =   0.99710
                        Activity of water  =   1.000
                           Ionic strength  =  1.228e-003
                       Mass of water (kg)  =  1.000e+000
                 Total alkalinity (eq/kg)  =  8.236e-004
                       Total CO2 (mol/kg)  =  1.000e-003
                      Temperature (deg C)  =  25.000
                  Electrical balance (eq)  =  1.025e-011
 Percent error, 100*(Cat-|An|)/(Cat+|An|)  =   0.00
                               Iterations  =   0
                                  Total H  = 1.110133e+002
                                  Total O  = 5.550904e+001

----------------------------Distribution of species----------------------------

                                                   Log       Log         Log 
   Species                 Molality    Activity  Molality  Activity     Gamma

   OH-                   1.041e-007  1.001e-007    -6.982    -7.000    -0.017
   H+                    1.038e-007  1.000e-007    -6.984    -7.000    -0.016
   H2O                   5.551e+001  1.000e+000     1.744    -0.000     0.000
C(-4)           0.000e+000
   CH4                   0.000e+000  0.000e+000   -67.362   -67.362     0.000
C(4)            1.000e-003
   HCO3-                 8.187e-004  7.876e-004    -3.087    -3.104    -0.017
   CO2                   1.770e-004  1.771e-004    -3.752    -3.752     0.000
   CaHCO3+               3.649e-006  3.511e-006    -5.438    -5.455    -0.017
   CO3-2                 4.312e-007  3.694e-007    -6.365    -6.433    -0.067
   CaCO3                 2.167e-007  2.168e-007    -6.664    -6.664     0.000
Ca              4.118e-004
   Ca+2                  4.079e-004  3.494e-004    -3.389    -3.457    -0.067
   CaHCO3+               3.649e-006  3.511e-006    -5.438    -5.455    -0.017
   CaCO3                 2.167e-007  2.168e-007    -6.664    -6.664     0.000
   CaOH+                 6.030e-010  5.798e-010    -9.220    -9.237    -0.017
H(0)            1.415e-025
   H2                    7.077e-026  7.079e-026   -25.150   -25.150     0.000
O(0)            0.000e+000
   O2                    0.000e+000  0.000e+000   -42.080   -42.080     0.000

------------------------------Saturation indices-------------------------------

	Phase               SI log IAP  log KT

	Aragonite        -1.55   -9.89   -8.34  CaCO3
	Calcite          -1.41   -9.89   -8.48  CaCO3
	CH4(g)          -64.50  -67.36   -2.86  CH4
	CO2(g)           -2.28   -3.75   -1.47  CO2
	H2(g)           -22.00  -25.15   -3.15  H2
	H2O(g)           -1.51   -0.00    1.51  H2O
	O2(g)           -39.19  -42.08   -2.89  O2

Using solution 6.	
Using surface 6.	Surface defined in simulation 4.

------------------------------Surface composition------------------------------

Solid         
	 0.000e+000  Surface charge, eq
	 0.000e+000  sigma, C/m**2
	 0.000e+000  psi, V
	-0.000e+000  -F*psi/RT
	 1.000e+000  exp(-F*psi/RT)
	 1.000e+000  specific area, m**2/g
	 1.000e+100  m**2 for  1.000e+100 g


Solid         
	 1.000e+100  moles
	                                   Mole                     Log
	Species               Moles    Fraction    Molality    Molality

	Solid            1.000e+100       1.000  1.000e+100     100.000

-----------------------------Solution composition------------------------------

	Elements           Molality       Moles

	C                1.000e-003  1.000e-003
	Ca               4.118e-004  4.118e-004

----------------------------Description of solution----------------------------

                                       pH  =   7.000      Charge balance
                                       pe  =   4.000      Adjusted to redox equilibrium
       Specific Conductance (uS/cm, 25 oC) = 81
                          Density (g/cm3)  =   0.99710
                        Activity of water  =   1.000
                           Ionic strength  =  1.228e-003
                       Mass of water (kg)  =  1.000e+000
                 Total alkalinity (eq/kg)  =  8.236e-004
                       Total CO2 (mol/kg)  =  1.000e-003
                      Temperature (deg C)  =  25.000
                  Electrical balance (eq)  =  1.025e-011
 Percent error, 100*(Cat-|An|)/(Cat+|An|)  =   0.00
                               Iterations  =   0
                                  Total H  = 1.110133e+002
                                  Total O  = 5.550904e+001

----------------------------Distribution of species----------------------------

                                                   Log       Log         Log 
   Species                 Molality    Activity  Molality  Activity     Gamma

   OH-                   1.041e-007  1.001e-007    -6.982    -7.000    -0.017
   H+                    1.038e-007  1.000e-007    -6.984    -7.000    -0.016
   H2O                   5.551e+001  1.000e+000     1.744    -0.000     0.000
C(-4)           0.000e+000
   CH4                   0.000e+000  0.000e+000   -67.362   -67.362     0.000
C(4)            1.000e-003
   HCO3-                 8.187e-004  7.876e-004    -3.087    -3.104    -0.017
   CO2                   1.770e-004  1.771e-004    -3.752    -3.752     0.000
   CaHCO3+               3.649e-006  3.511e-006    -5.438    -5.455    -0.017
   CO3-2                 4.312e-007  3.694e-007    -6.365    -6.433    -0.067
   CaCO3                 2.167e-007  2.168e-007    -6.664    -6.664     0.000
Ca              4.118e-004
   Ca+2                  4.079e-004  3.494e-004    -3.389    -3.457    -0.067
   CaHCO3+               3.649e-006  3.511e-006    -5.438    -5.455    -0.017
   CaCO3                 2.167e-007  2.168e-007    -6.664    -6.664     0.000
   CaOH+                 6.030e-010  5.798e-010    -9.220    -9.237    -0.017
H(0)            1.415e-025
   H2                    7.077e-026  7.079e-026   -25.150   -25.150     0.000
O(0)            0.000e+000
   O2                    0.000e+000  0.000e+000   -42.080   -42.080     0.000

------------------------------Saturation indices-------------------------------

	Phase               SI log IAP  log KT

	Aragonite        -1.55   -9.89   -8.34  CaCO3
	Calcite          -1.41   -9.89   -8.48  CaCO3
	CH4(g)          -64.50  -67.36   -2.86  CH4
	CO2(g)           -2.28   -3.75   -1.47  CO2
	H2(g)           -22.00  -25.15   -3.15  H2
	H2O(g)           -1.51   -0.00    1.51  H2O
	O2(g)           -39.19  -42.08   -2.89  O2

Using solution 7.	
Using surface 7.	Surface defined in simulation 4.

------------------------------Surface composition------------------------------

Solid         
	 0.000e+000  Surface charge, eq
	 0.000e+000  sigma, C/m**2
	 0.000e+000  psi, V
	-0.000e+000  -F*psi/RT
	 1.000e+000  exp(-F*psi/RT)
	 1.000e+000  specific area, m**2/g
	 1.000e+100  m**2 for  1.000e+100 g


Solid         
	 1.000e+100  moles
	                                   Mole                     Log
	Species               Moles    Fraction    Molality    Molality

	Solid            1.000e+100       1.000  1.000e+100     100.000

-----------------------------Solution composition------------------------------

	Elements           Molality       Moles

	C                1.000e-003  1.000e-003
	Ca               4.118e-004  4.118e-004

----------------------------Description of solution----------------------------

                                       pH  =   7.000      Charge balance
                                       pe  =   4.000      Adjusted to redox equilibrium
       Specific Conductance (uS/cm, 25 oC) = 81
                          Density (g/cm3)  =   0.99710
                        Activity of water  =   1.000
                           Ionic strength  =  1.228e-003
                       Mass of water (kg)  =  1.000e+000
                 Total alkalinity (eq/kg)  =  8.236e-004
                       Total CO2 (mol/kg)  =  1.000e-003
                      Temperature (deg C)  =  25.000
                  Electrical balance (eq)  =  1.025e-011
 Percent error, 100*(Cat-|An|)/(Cat+|An|)  =   0.00
                               Iterations  =   0
                                  Total H  = 1.110133e+002
                                  Total O  = 5.550904e+001

----------------------------Distribution of species----------------------------

                                                   Log       Log         Log 
   Species                 Molality    Activity  Molality  Activity     Gamma

   OH-                   1.041e-007  1.001e-007    -6.982    -7.000    -0.017
   H+                    1.038e-007  1.000e-007    -6.984    -7.000    -0.016
   H2O                   5.551e+001  1.000e+000     1.744    -0.000     0.000
C(-4)           0.000e+000
   CH4                   0.000e+000  0.000e+000   -67.362   -67.362     0.000
C(4)            1.000e-003
   HCO3-                 8.187e-004  7.876e-004    -3.087    -3.104    -0.017
   CO2                   1.770e-004  1.771e-004    -3.752    -3.752     0.000
   CaHCO3+               3.649e-006  3.511e-006    -5.438    -5.455    -0.017
   CO3-2                 4.312e-007  3.694e-007    -6.365    -6.433    -0.067
   CaCO3                 2.167e-007  2.168e-007    -6.664    -6.664     0.000
Ca              4.118e-004
   Ca+2                  4.079e-004  3.494e-004    -3.389    -3.457    -0.067
   CaHCO3+               3.649e-006  3.511e-006    -5.438    -5.455    -0.017
   CaCO3                 2.167e-007  2.168e-007    -6.664    -6.664     0.000
   CaOH+                 6.030e-010  5.798e-010    -9.220    -9.237    -0.017
H(0)            1.415e-025
   H2                    7.077e-026  7.079e-026   -25.150   -25.150     0.000
O(0)            0.000e+000
   O2                    0.000e+000  0.000e+000   -42.080   -42.080     0.000

------------------------------Saturation indices-------------------------------

	Phase               SI log IAP  log KT

	Aragonite        -1.55   -9.89   -8.34  CaCO3
	Calcite          -1.41   -9.89   -8.48  CaCO3
	CH4(g)          -64.50  -67.36   -2.86  CH4
	CO2(g)           -2.28   -3.75   -1.47  CO2
	H2(g)           -22.00  -25.15   -3.15  H2
	H2O(g)           -1.51   -0.00    1.51  H2O
	O2(g)           -39.19  -42.08   -2.89  O2

Using solution 8.	
Using surface 8.	Surface defined in simulation 4.

------------------------------Surface composition------------------------------

Solid         
	 0.000e+000  Surface charge, eq
	 0.000e+000  sigma, C/m**2
	 0.000e+000  psi, V
	-0.000e+000  -F*psi/RT
	 1.000e+000  exp(-F*psi/RT)
	 1.000e+000  specific area, m**2/g
	 1.000e+100  m**2 for  1.000e+100 g


Solid         
	 1.000e+100  moles
	                                   Mole                     Log
	Species               Moles    Fraction    Molality    Molality

	Solid            1.000e+100       1.000  1.000e+100     100.000

-----------------------------Solution composition------------------------------

	Elements           Molality       Moles

	C                1.000e-003  1.000e-003
	Ca               4.118e-004  4.118e-004

----------------------------Description of solution----------------------------

                                       pH  =   7.000      Charge balance
                                       pe  =   4.000      Adjusted to redox equilibrium
       Specific Conductance (uS/cm, 25 oC) = 81
                          Density (g/cm3)  =   0.99710
                        Activity of water  =   1.000
                           Ionic strength  =  1.228e-003
                       Mass of water (kg)  =  1.000e+000
                 Total alkalinity (eq/kg)  =  8.236e-004
                       Total CO2 (mol/kg)  =  1.000e-003
                      Temperature (deg C)  =  25.000
                  Electrical balance (eq)  =  1.025e-011
 Percent error, 100*(Cat-|An|)/(Cat+|An|)  =   0.00
                               Iterations  =   0
                                  Total H  = 1.110133e+002
                                  Total O  = 5.550904e+001

----------------------------Distribution of species----------------------------

                                                   Log       Log         Log 
   Species                 Molality    Activity  Molality  Activity     Gamma

   OH-                   1.041e-007  1.001e-007    -6.982    -7.000    -0.017
   H+                    1.038e-007  1.000e-007    -6.984    -7.000    -0.016
   H2O                   5.551e+001  1.000e+000     1.744    -0.000     0.000
C(-4)           0.000e+000
   CH4                   0.000e+000  0.000e+000   -67.362   -67.362     0.000
C(4)            1.000e-003
   HCO3-                 8.187e-004  7.876e-004    -3.087    -3.104    -0.017
   CO2                   1.770e-004  1.771e-004    -3.752    -3.752     0.000
   CaHCO3+               3.649e-006  3.511e-006    -5.438    -5.455    -0.017
   CO3-2                 4.312e-007  3.694e-007    -6.365    -6.433    -0.067
   CaCO3                 2.167e-007  2.168e-007    -6.664    -6.664     0.000
Ca              4.118e-004
   Ca+2                  4.079e-004  3.494e-004    -3.389    -3.457    -0.067
   CaHCO3+               3.649e-006  3.511e-006    -5.438    -5.455    -0.017
   CaCO3                 2.167e-007  2.168e-007    -6.664    -6.664     0.000
   CaOH+                 6.030e-010  5.798e-010    -9.220    -9.237    -0.017
H(0)            1.415e-025
   H2                    7.077e-026  7.079e-026   -25.150   -25.150     0.000
O(0)            0.000e+000
   O2                    0.000e+000  0.000e+000   -42.080   -42.080     0.000

------------------------------Saturation indices-------------------------------

	Phase               SI log IAP  log KT

	Aragonite        -1.55   -9.89   -8.34  CaCO3
	Calcite          -1.41   -9.89   -8.48  CaCO3
	CH4(g)          -64.50  -67.36   -2.86  CH4
	CO2(g)           -2.28   -3.75   -1.47  CO2
	H2(g)           -22.00  -25.15   -3.15  H2
	H2O(g)           -1.51   -0.00    1.51  H2O
	O2(g)           -39.19  -42.08   -2.89  O2

Using solution 9.	
Using surface 9.	Surface defined in simulation 4.

------------------------------Surface composition------------------------------

Solid         
	 0.000e+000  Surface charge, eq
	 0.000e+000  sigma, C/m**2
	 0.000e+000  psi, V
	-0.000e+000  -F*psi/RT
	 1.000e+000  exp(-F*psi/RT)
	 1.000e+000  specific area, m**2/g
	 1.000e+100  m**2 for  1.000e+100 g


Solid         
	 1.000e+100  moles
	                                   Mole                     Log
	Species               Moles    Fraction    Molality    Molality

	Solid            1.000e+100       1.000  1.000e+100     100.000

-----------------------------Solution composition------------------------------

	Elements           Molality       Moles

	C                1.000e-003  1.000e-003
	Ca               4.118e-004  4.118e-004

----------------------------Description of solution----------------------------

                                       pH  =   7.000      Charge balance
                                       pe  =   4.000      Adjusted to redox equilibrium
       Specific Conductance (uS/cm, 25 oC) = 81
                          Density (g/cm3)  =   0.99710
                        Activity of water  =   1.000
                           Ionic strength  =  1.228e-003
                       Mass of water (kg)  =  1.000e+000
                 Total alkalinity (eq/kg)  =  8.236e-004
                       Total CO2 (mol/kg)  =  1.000e-003
                      Temperature (deg C)  =  25.000
                  Electrical balance (eq)  =  1.025e-011
 Percent error, 100*(Cat-|An|)/(Cat+|An|)  =   0.00
                               Iterations  =   0
                                  Total H  = 1.110133e+002
                                  Total O  = 5.550904e+001

----------------------------Distribution of species----------------------------

                                                   Log       Log         Log 
   Species                 Molality    Activity  Molality  Activity     Gamma

   OH-                   1.041e-007  1.001e-007    -6.982    -7.000    -0.017
   H+                    1.038e-007  1.000e-007    -6.984    -7.000    -0.016
   H2O                   5.551e+001  1.000e+000     1.744    -0.000     0.000
C(-4)           0.000e+000
   CH4                   0.000e+000  0.000e+000   -67.362   -67.362     0.000
C(4)            1.000e-003
   HCO3-                 8.187e-004  7.876e-004    -3.087    -3.104    -0.017
   CO2                   1.770e-004  1.771e-004    -3.752    -3.752     0.000
   CaHCO3+               3.649e-006  3.511e-006    -5.438    -5.455    -0.017
   CO3-2                 4.312e-007  3.694e-007    -6.365    -6.433    -0.067
   CaCO3                 2.167e-007  2.168e-007    -6.664    -6.664     0.000
Ca              4.118e-004
   Ca+2                  4.079e-004  3.494e-004    -3.389    -3.457    -0.067
   CaHCO3+               3.649e-006  3.511e-006    -5.438    -5.455    -0.017
   CaCO3                 2.167e-007  2.168e-007    -6.664    -6.664     0.000
   CaOH+                 6.030e-010  5.798e-010    -9.220    -9.237    -0.017
H(0)            1.415e-025
   H2                    7.077e-026  7.079e-026   -25.150   -25.150     0.000
O(0)            0.000e+000
   O2                    0.000e+000  0.000e+000   -42.080   -42.080     0.000

------------------------------Saturation indices-------------------------------

	Phase               SI log IAP  log KT

	Aragonite        -1.55   -9.89   -8.34  CaCO3
	Calcite          -1.41   -9.89   -8.48  CaCO3
	CH4(g)          -64.50  -67.36   -2.86  CH4
	CO2(g)           -2.28   -3.75   -1.47  CO2
	H2(g)           -22.00  -25.15   -3.15  H2
	H2O(g)           -1.51   -0.00    1.51  H2O
	O2(g)           -39.19  -42.08   -2.89  O2

Using solution 10.	
Using surface 10.	Surface defined in simulation 4.

------------------------------Surface composition------------------------------

Solid         
	 0.000e+000  Surface charge, eq
	 0.000e+000  sigma, C/m**2
	 0.000e+000  psi, V
	-0.000e+000  -F*psi/RT
	 1.000e+000  exp(-F*psi/RT)
	 1.000e+000  specific area, m**2/g
	 1.000e+100  m**2 for  1.000e+100 g


Solid         
	 1.000e+100  moles
	                                   Mole                     Log
	Species               Moles    Fraction    Molality    Molality

	Solid            1.000e+100       1.000  1.000e+100     100.000

-----------------------------Solution composition------------------------------

	Elements           Molality       Moles

	C                1.000e-003  1.000e-003
	Ca               4.118e-004  4.118e-004

----------------------------Description of solution----------------------------

                                       pH  =   7.000      Charge balance
                                       pe  =   4.000      Adjusted to redox equilibrium
       Specific Conductance (uS/cm, 25 oC) = 81
                          Density (g/cm3)  =   0.99710
                        Activity of water  =   1.000
                           Ionic strength  =  1.228e-003
                       Mass of water (kg)  =  1.000e+000
                 Total alkalinity (eq/kg)  =  8.236e-004
                       Total CO2 (mol/kg)  =  1.000e-003
                      Temperature (deg C)  =  25.000
                  Electrical balance (eq)  =  1.025e-011
 Percent error, 100*(Cat-|An|)/(Cat+|An|)  =   0.00
                               Iterations  =   0
                                  Total H  = 1.110133e+002
                                  Total O  = 5.550904e+001

----------------------------Distribution of species----------------------------

                                                   Log       Log         Log 
   Species                 Molality    Activity  Molality  Activity     Gamma

   OH-                   1.041e-007  1.001e-007    -6.982    -7.000    -0.017
   H+                    1.038e-007  1.000e-007    -6.984    -7.000    -0.016
   H2O                   5.551e+001  1.000e+000     1.744    -0.000     0.000
C(-4)           0.000e+000
   CH4                   0.000e+000  0.000e+000   -67.362   -67.362     0.000
C(4)            1.000e-003
   HCO3-                 8.187e-004  7.876e-004    -3.087    -3.104    -0.017
   CO2                   1.770e-004  1.771e-004    -3.752    -3.752     0.000
   CaHCO3+               3.649e-006  3.511e-006    -5.438    -5.455    -0.017
   CO3-2                 4.312e-007  3.694e-007    -6.365    -6.433    -0.067
   CaCO3                 2.167e-007  2.168e-007    -6.664    -6.664     0.000
Ca              4.118e-004
   Ca+2                  4.079e-004  3.494e-004    -3.389    -3.457    -0.067
   CaHCO3+               3.649e-006  3.511e-006    -5.438    -5.455    -0.017
   CaCO3                 2.167e-007  2.168e-007    -6.664    -6.664     0.000
   CaOH+                 6.030e-010  5.798e-010    -9.220    -9.237    -0.017
H(0)            1.415e-025
   H2                    7.077e-026  7.079e-026   -25.150   -25.150     0.000
O(0)            0.000e+000
   O2                    0.000e+000  0.000e+000   -42.080   -42.080     0.000

------------------------------Saturation indices-------------------------------

	Phase               SI log IAP  log KT

	Aragonite        -1.55   -9.89   -8.34  CaCO3
	Calcite          -1.41   -9.89   -8.48  CaCO3
	CH4(g)          -64.50  -67.36   -2.86  CH4
	CO2(g)           -2.28   -3.75   -1.47  CO2
	H2(g)           -22.00  -25.15   -3.15  H2
	H2O(g)           -1.51   -0.00    1.51  H2O
	O2(g)           -39.19  -42.08   -2.89  O2

Using solution 11.	
Using surface 11.	Surface defined in simulation 4.

------------------------------Surface composition------------------------------

Solid         
	 0.000e+000  Surface charge, eq
	 0.000e+000  sigma, C/m**2
	 0.000e+000  psi, V
	-0.000e+000  -F*psi/RT
	 1.000e+000  exp(-F*psi/RT)
	 1.000e+000  specific area, m**2/g
	 1.000e+100  m**2 for  1.000e+100 g


Solid         
	 1.000e+100  moles
	                                   Mole                     Log
	Species               Moles    Fraction    Molality    Molality

	Solid            1.000e+100       1.000  1.000e+100     100.000

-----------------------------Solution composition------------------------------

	Elements           Molality       Moles

	C                1.000e-003  1.000e-003
	Ca               4.118e-004  4.118e-004

----------------------------Description of solution----------------------------

                                       pH  =   7.000      Charge balance
                                       pe  =   4.000      Adjusted to redox equilibrium
       Specific Conductance (uS/cm, 25 oC) = 81
                          Density (g/cm3)  =   0.99710
                        Activity of water  =   1.000
                           Ionic strength  =  1.228e-003
                       Mass of water (kg)  =  1.000e+000
                 Total alkalinity (eq/kg)  =  8.236e-004
                       Total CO2 (mol/kg)  =  1.000e-003
                      Temperature (deg C)  =  25.000
                  Electrical balance (eq)  =  1.025e-011
 Percent error, 100*(Cat-|An|)/(Cat+|An|)  =   0.00
                               Iterations  =   0
                                  Total H  = 1.110133e+002
                                  Total O  = 5.550904e+001

----------------------------Distribution of species----------------------------

                                                   Log       Log         Log 
   Species                 Molality    Activity  Molality  Activity     Gamma

   OH-                   1.041e-007  1.001e-007    -6.982    -7.000    -0.017
   H+                    1.038e-007  1.000e-007    -6.984    -7.000    -0.016
   H2O                   5.551e+001  1.000e+000     1.744    -0.000     0.000
C(-4)           0.000e+000
   CH4                   0.000e+000  0.000e+000   -67.362   -67.362     0.000
C(4)            1.000e-003
   HCO3-                 8.187e-004  7.876e-004    -3.087    -3.104    -0.017
   CO2                   1.770e-004  1.771e-004    -3.752    -3.752     0.000
   CaHCO3+               3.649e-006  3.511e-006    -5.438    -5.455    -0.017
   CO3-2                 4.312e-007  3.694e-007    -6.365    -6.433    -0.067
   CaCO3                 2.167e-007  2.168e-007    -6.664    -6.664     0.000
Ca              4.118e-004
   Ca+2                  4.079e-004  3.494e-004    -3.389    -3.457    -0.067
   CaHCO3+               3.649e-006  3.511e-006    -5.438    -5.455    -0.017
   CaCO3                 2.167e-007  2.168e-007    -6.664    -6.664     0.000
   CaOH+                 6.030e-010  5.798e-010    -9.220    -9.237    -0.017
H(0)            1.415e-025
   H2                    7.077e-026  7.079e-026   -25.150   -25.150     0.000
O(0)            0.000e+000
   O2                    0.000e+000  0.000e+000   -42.080   -42.080     0.000

------------------------------Saturation indices-------------------------------

	Phase               SI log IAP  log KT

	Aragonite        -1.55   -9.89   -8.34  CaCO3
	Calcite          -1.41   -9.89   -8.48  CaCO3
	CH4(g)          -64.50  -67.36   -2.86  CH4
	CO2(g)           -2.28   -3.75   -1.47  CO2
	H2(g)           -22.00  -25.15   -3.15  H2
	H2O(g)           -1.51   -0.00    1.51  H2O
	O2(g)           -39.19  -42.08   -2.89  O2

Using solution 12.	
Using surface 12.	Surface defined in simulation 4.

------------------------------Surface composition------------------------------

Solid         
	 0.000e+000  Surface charge, eq
	 0.000e+000  sigma, C/m**2
	 0.000e+000  psi, V
	-0.000e+000  -F*psi/RT
	 1.000e+000  exp(-F*psi/RT)
	 1.000e+000  specific area, m**2/g
	 1.000e+100  m**2 for  1.000e+100 g


Solid         
	 1.000e+100  moles
	                                   Mole                     Log
	Species               Moles    Fraction    Molality    Molality

	Solid            1.000e+100       1.000  1.000e+100     100.000

-----------------------------Solution composition------------------------------

	Elements           Molality       Moles

	C                1.000e-003  1.000e-003
	Ca               4.118e-004  4.118e-004

----------------------------Description of solution----------------------------

                                       pH  =   7.000      Charge balance
                                       pe  =   4.000      Adjusted to redox equilibrium
       Specific Conductance (uS/cm, 25 oC) = 81
                          Density (g/cm3)  =   0.99710
                        Activity of water  =   1.000
                           Ionic strength  =  1.228e-003
                       Mass of water (kg)  =  1.000e+000
                 Total alkalinity (eq/kg)  =  8.236e-004
                       Total CO2 (mol/kg)  =  1.000e-003
                      Temperature (deg C)  =  25.000
                  Electrical balance (eq)  =  1.025e-011
 Percent error, 100*(Cat-|An|)/(Cat+|An|)  =   0.00
                               Iterations  =   0
                                  Total H  = 1.110133e+002
                                  Total O  = 5.550904e+001

----------------------------Distribution of species----------------------------

                                                   Log       Log         Log 
   Species                 Molality    Activity  Molality  Activity     Gamma

   OH-                   1.041e-007  1.001e-007    -6.982    -7.000    -0.017
   H+                    1.038e-007  1.000e-007    -6.984    -7.000    -0.016
   H2O                   5.551e+001  1.000e+000     1.744    -0.000     0.000
C(-4)           0.000e+000
   CH4                   0.000e+000  0.000e+000   -67.362   -67.362     0.000
C(4)            1.000e-003
   HCO3-                 8.187e-004  7.876e-004    -3.087    -3.104    -0.017
   CO2                   1.770e-004  1.771e-004    -3.752    -3.752     0.000
   CaHCO3+               3.649e-006  3.511e-006    -5.438    -5.455    -0.017
   CO3-2                 4.312e-007  3.694e-007    -6.365    -6.433    -0.067
   CaCO3                 2.167e-007  2.168e-007    -6.664    -6.664     0.000
Ca              4.118e-004
   Ca+2                  4.079e-004  3.494e-004    -3.389    -3.457    -0.067
   CaHCO3+               3.649e-006  3.511e-006    -5.438    -5.455    -0.017
   CaCO3                 2.167e-007  2.168e-007    -6.664    -6.664     0.000
   CaOH+                 6.030e-010  5.798e-010    -9.220    -9.237    -0.017
H(0)            1.415e-025
   H2                    7.077e-026  7.079e-026   -25.150   -25.150     0.000
O(0)            0.000e+000
   O2                    0.000e+000  0.000e+000   -42.080   -42.080     0.000

------------------------------Saturation indices-------------------------------

	Phase               SI log IAP  log KT

	Aragonite        -1.55   -9.89   -8.34  CaCO3
	Calcite          -1.41   -9.89   -8.48  CaCO3
	CH4(g)          -64.50  -67.36   -2.86  CH4
	CO2(g)           -2.28   -3.75   -1.47  CO2
	H2(g)           -22.00  -25.15   -3.15  H2
	H2O(g)           -1.51   -0.00    1.51  H2O
	O2(g)           -39.19  -42.08   -2.89  O2

Using solution 13.	
Using surface 13.	Surface defined in simulation 4.

------------------------------Surface composition------------------------------

Solid         
	 0.000e+000  Surface charge, eq
	 0.000e+000  sigma, C/m**2
	 0.000e+000  psi, V
	-0.000e+000  -F*psi/RT
	 1.000e+000  exp(-F*psi/RT)
	 1.000e+000  specific area, m**2/g
	 1.000e+100  m**2 for  1.000e+100 g


Solid         
	 1.000e+100  moles
	                                   Mole                     Log
	Species               Moles    Fraction    Molality    Molality

	Solid            1.000e+100       1.000  1.000e+100     100.000

-----------------------------Solution composition------------------------------

	Elements           Molality       Moles

	C                1.000e-003  1.000e-003
	Ca               4.118e-004  4.118e-004

----------------------------Description of solution----------------------------

                                       pH  =   7.000      Charge balance
                                       pe  =   4.000      Adjusted to redox equilibrium
       Specific Conductance (uS/cm, 25 oC) = 81
                          Density (g/cm3)  =   0.99710
                        Activity of water  =   1.000
                           Ionic strength  =  1.228e-003
                       Mass of water (kg)  =  1.000e+000
                 Total alkalinity (eq/kg)  =  8.236e-004
                       Total CO2 (mol/kg)  =  1.000e-003
                      Temperature (deg C)  =  25.000
                  Electrical balance (eq)  =  1.025e-011
 Percent error, 100*(Cat-|An|)/(Cat+|An|)  =   0.00
                               Iterations  =   0
                                  Total H  = 1.110133e+002
                                  Total O  = 5.550904e+001

----------------------------Distribution of species----------------------------

                                                   Log       Log         Log 
   Species                 Molality    Activity  Molality  Activity     Gamma

   OH-                   1.041e-007  1.001e-007    -6.982    -7.000    -0.017
   H+                    1.038e-007  1.000e-007    -6.984    -7.000    -0.016
   H2O                   5.551e+001  1.000e+000     1.744    -0.000     0.000
C(-4)           0.000e+000
   CH4                   0.000e+000  0.000e+000   -67.362   -67.362     0.000
C(4)            1.000e-003
   HCO3-                 8.187e-004  7.876e-004    -3.087    -3.104    -0.017
   CO2                   1.770e-004  1.771e-004    -3.752    -3.752     0.000
   CaHCO3+               3.649e-006  3.511e-006    -5.438    -5.455    -0.017
   CO3-2                 4.312e-007  3.694e-007    -6.365    -6.433    -0.067
   CaCO3                 2.167e-007  2.168e-007    -6.664    -6.664     0.000
Ca              4.118e-004
   Ca+2                  4.079e-004  3.494e-004    -3.389    -3.457    -0.067
   CaHCO3+               3.649e-006  3.511e-006    -5.438    -5.455    -0.017
   CaCO3                 2.167e-007  2.168e-007    -6.664    -6.664     0.000
   CaOH+                 6.030e-010  5.798e-010    -9.220    -9.237    -0.017
H(0)            1.415e-025
   H2                    7.077e-026  7.079e-026   -25.150   -25.150     0.000
O(0)            0.000e+000
   O2                    0.000e+000  0.000e+000   -42.080   -42.080     0.000

------------------------------Saturation indices-------------------------------

	Phase               SI log IAP  log KT

	Aragonite        -1.55   -9.89   -8.34  CaCO3
	Calcite          -1.41   -9.89   -8.48  CaCO3
	CH4(g)          -64.50  -67.36   -2.86  CH4
	CO2(g)           -2.28   -3.75   -1.47  CO2
	H2(g)           -22.00  -25.15   -3.15  H2
	H2O(g)           -1.51   -0.00    1.51  H2O
	O2(g)           -39.19  -42.08   -2.89  O2

Using solution 14.	
Using surface 14.	Surface defined in simulation 4.

------------------------------Surface composition------------------------------

Solid         
	 0.000e+000  Surface charge, eq
	 0.000e+000  sigma, C/m**2
	 0.000e+000  psi, V
	-0.000e+000  -F*psi/RT
	 1.000e+000  exp(-F*psi/RT)
	 1.000e+000  specific area, m**2/g
	 1.000e+100  m**2 for  1.000e+100 g


Solid         
	 1.000e+100  moles
	                                   Mole                     Log
	Species               Moles    Fraction    Molality    Molality

	Solid            1.000e+100       1.000  1.000e+100     100.000

-----------------------------Solution composition------------------------------

	Elements           Molality       Moles

	C                1.000e-003  1.000e-003
	Ca               4.118e-004  4.118e-004

----------------------------Description of solution----------------------------

                                       pH  =   7.000      Charge balance
                                       pe  =   4.000      Adjusted to redox equilibrium
       Specific Conductance (uS/cm, 25 oC) = 81
                          Density (g/cm3)  =   0.99710
                        Activity of water  =   1.000
                           Ionic strength  =  1.228e-003
                       Mass of water (kg)  =  1.000e+000
                 Total alkalinity (eq/kg)  =  8.236e-004
                       Total CO2 (mol/kg)  =  1.000e-003
                      Temperature (deg C)  =  25.000
                  Electrical balance (eq)  =  1.025e-011
 Percent error, 100*(Cat-|An|)/(Cat+|An|)  =   0.00
                               Iterations  =   0
                                  Total H  = 1.110133e+002
                                  Total O  = 5.550904e+001

----------------------------Distribution of species----------------------------

                                                   Log       Log         Log 
   Species                 Molality    Activity  Molality  Activity     Gamma

   OH-                   1.041e-007  1.001e-007    -6.982    -7.000    -0.017
   H+                    1.038e-007  1.000e-007    -6.984    -7.000    -0.016
   H2O                   5.551e+001  1.000e+000     1.744    -0.000     0.000
C(-4)           0.000e+000
   CH4                   0.000e+000  0.000e+000   -67.362   -67.362     0.000
C(4)            1.000e-003
   HCO3-                 8.187e-004  7.876e-004    -3.087    -3.104    -0.017
   CO2                   1.770e-004  1.771e-004    -3.752    -3.752     0.000
   CaHCO3+               3.649e-006  3.511e-006    -5.438    -5.455    -0.017
   CO3-2                 4.312e-007  3.694e-007    -6.365    -6.433    -0.067
   CaCO3                 2.167e-007  2.168e-007    -6.664    -6.664     0.000
Ca              4.118e-004
   Ca+2                  4.079e-004  3.494e-004    -3.389    -3.457    -0.067
   CaHCO3+               3.649e-006  3.511e-006    -5.438    -5.455    -0.017
   CaCO3                 2.167e-007  2.168e-007    -6.664    -6.664     0.000
   CaOH+                 6.030e-010  5.798e-010    -9.220    -9.237    -0.017
H(0)            1.415e-025
   H2                    7.077e-026  7.079e-026   -25.150   -25.150     0.000
O(0)            0.000e+000
   O2                    0.000e+000  0.000e+000   -42.080   -42.080     0.000

------------------------------Saturation indices-------------------------------

	Phase               SI log IAP  log KT

	Aragonite        -1.55   -9.89   -8.34  CaCO3
	Calcite          -1.41   -9.89   -8.48  CaCO3
	CH4(g)          -64.50  -67.36   -2.86  CH4
	CO2(g)           -2.28   -3.75   -1.47  CO2
	H2(g)           -22.00  -25.15   -3.15  H2
	H2O(g)           -1.51   -0.00    1.51  H2O
	O2(g)           -39.19  -42.08   -2.89  O2

Using solution 15.	
Using surface 15.	Surface defined in simulation 4.

------------------------------Surface composition------------------------------

Solid         
	 0.000e+000  Surface charge, eq
	 0.000e+000  sigma, C/m**2
	 0.000e+000  psi, V
	-0.000e+000  -F*psi/RT
	 1.000e+000  exp(-F*psi/RT)
	 1.000e+000  specific area, m**2/g
	 1.000e+100  m**2 for  1.000e+100 g


Solid         
	 1.000e+100  moles
	                                   Mole                     Log
	Species               Moles    Fraction    Molality    Molality

	Solid            1.000e+100       1.000  1.000e+100     100.000

-----------------------------Solution composition------------------------------

	Elements           Molality       Moles

	C                1.000e-003  1.000e-003
	Ca               4.118e-004  4.118e-004

----------------------------Description of solution----------------------------

                                       pH  =   7.000      Charge balance
                                       pe  =   4.000      Adjusted to redox equilibrium
       Specific Conductance (uS/cm, 25 oC) = 81
                          Density (g/cm3)  =   0.99710
                        Activity of water  =   1.000
                           Ionic strength  =  1.228e-003
                       Mass of water (kg)  =  1.000e+000
                 Total alkalinity (eq/kg)  =  8.236e-004
                       Total CO2 (mol/kg)  =  1.000e-003
                      Temperature (deg C)  =  25.000
                  Electrical balance (eq)  =  1.025e-011
 Percent error, 100*(Cat-|An|)/(Cat+|An|)  =   0.00
                               Iterations  =   0
                                  Total H  = 1.110133e+002
                                  Total O  = 5.550904e+001

----------------------------Distribution of species----------------------------

                                                   Log       Log         Log 
   Species                 Molality    Activity  Molality  Activity     Gamma

   OH-                   1.041e-007  1.001e-007    -6.982    -7.000    -0.017
   H+                    1.038e-007  1.000e-007    -6.984    -7.000    -0.016
   H2O                   5.551e+001  1.000e+000     1.744    -0.000     0.000
C(-4)           0.000e+000
   CH4                   0.000e+000  0.000e+000   -67.362   -67.362     0.000
C(4)            1.000e-003
   HCO3-                 8.187e-004  7.876e-004    -3.087    -3.104    -0.017
   CO2                   1.770e-004  1.771e-004    -3.752    -3.752     0.000
   CaHCO3+               3.649e-006  3.511e-006    -5.438    -5.455    -0.017
   CO3-2                 4.312e-007  3.694e-007    -6.365    -6.433    -0.067
   CaCO3                 2.167e-007  2.168e-007    -6.664    -6.664     0.000
Ca              4.118e-004
   Ca+2                  4.079e-004  3.494e-004    -3.389    -3.457    -0.067
   CaHCO3+               3.649e-006  3.511e-006    -5.438    -5.455    -0.017
   CaCO3                 2.167e-007  2.168e-007    -6.664    -6.664     0.000
   CaOH+                 6.030e-010  5.798e-010    -9.220    -9.237    -0.017
H(0)            1.415e-025
   H2                    7.077e-026  7.079e-026   -25.150   -25.150     0.000
O(0)            0.000e+000
   O2                    0.000e+000  0.000e+000   -42.080   -42.080     0.000

------------------------------Saturation indices-------------------------------

	Phase               SI log IAP  log KT

	Aragonite        -1.55   -9.89   -8.34  CaCO3
	Calcite          -1.41   -9.89   -8.48  CaCO3
	CH4(g)          -64.50  -67.36   -2.86  CH4
	CO2(g)           -2.28   -3.75   -1.47  CO2
	H2(g)           -22.00  -25.15   -3.15  H2
	H2O(g)           -1.51   -0.00    1.51  H2O
	O2(g)           -39.19  -42.08   -2.89  O2

Using solution 16.	
Using surface 16.	Surface defined in simulation 4.

------------------------------Surface composition------------------------------

Solid         
	 0.000e+000  Surface charge, eq
	 0.000e+000  sigma, C/m**2
	 0.000e+000  psi, V
	-0.000e+000  -F*psi/RT
	 1.000e+000  exp(-F*psi/RT)
	 1.000e+000  specific area, m**2/g
	 1.000e+100  m**2 for  1.000e+100 g


Solid         
	 1.000e+100  moles
	                                   Mole                     Log
	Species               Moles    Fraction    Molality    Molality

	Solid            1.000e+100       1.000  1.000e+100     100.000

-----------------------------Solution composition------------------------------

	Elements           Molality       Moles

	C                1.000e-003  1.000e-003
	Ca               4.118e-004  4.118e-004

----------------------------Description of solution----------------------------

                                       pH  =   7.000      Charge balance
                                       pe  =   4.000      Adjusted to redox equilibrium
       Specific Conductance (uS/cm, 25 oC) = 81
                          Density (g/cm3)  =   0.99710
                        Activity of water  =   1.000
                           Ionic strength  =  1.228e-003
                       Mass of water (kg)  =  1.000e+000
                 Total alkalinity (eq/kg)  =  8.236e-004
                       Total CO2 (mol/kg)  =  1.000e-003
                      Temperature (deg C)  =  25.000
                  Electrical balance (eq)  =  1.025e-011
 Percent error, 100*(Cat-|An|)/(Cat+|An|)  =   0.00
                               Iterations  =   0
                                  Total H  = 1.110133e+002
                                  Total O  = 5.550904e+001

----------------------------Distribution of species----------------------------

                                                   Log       Log         Log 
   Species                 Molality    Activity  Molality  Activity     Gamma

   OH-                   1.041e-007  1.001e-007    -6.982    -7.000    -0.017
   H+                    1.038e-007  1.000e-007    -6.984    -7.000    -0.016
   H2O                   5.551e+001  1.000e+000     1.744    -0.000     0.000
C(-4)           0.000e+000
   CH4                   0.000e+000  0.000e+000   -67.362   -67.362     0.000
C(4)            1.000e-003
   HCO3-                 8.187e-004  7.876e-004    -3.087    -3.104    -0.017
   CO2                   1.770e-004  1.771e-004    -3.752    -3.752     0.000
   CaHCO3+               3.649e-006  3.511e-006    -5.438    -5.455    -0.017
   CO3-2                 4.312e-007  3.694e-007    -6.365    -6.433    -0.067
   CaCO3                 2.167e-007  2.168e-007    -6.664    -6.664     0.000
Ca              4.118e-004
   Ca+2                  4.079e-004  3.494e-004    -3.389    -3.457    -0.067
   CaHCO3+               3.649e-006  3.511e-006    -5.438    -5.455    -0.017
   CaCO3                 2.167e-007  2.168e-007    -6.664    -6.664     0.000
   CaOH+                 6.030e-010  5.798e-010    -9.220    -9.237    -0.017
H(0)            1.415e-025
   H2                    7.077e-026  7.079e-026   -25.150   -25.150     0.000
O(0)            0.000e+000
   O2                    0.000e+000  0.000e+000   -42.080   -42.080     0.000

------------------------------Saturation indices-------------------------------

	Phase               SI log IAP  log KT

	Aragonite        -1.55   -9.89   -8.34  CaCO3
	Calcite          -1.41   -9.89   -8.48  CaCO3
	CH4(g)          -64.50  -67.36   -2.86  CH4
	CO2(g)           -2.28   -3.75   -1.47  CO2
	H2(g)           -22.00  -25.15   -3.15  H2
	H2O(g)           -1.51   -0.00    1.51  H2O
	O2(g)           -39.19  -42.08   -2.89  O2

Using solution 17.	
Using surface 17.	Surface defined in simulation 4.

------------------------------Surface composition------------------------------

Solid         
	 0.000e+000  Surface charge, eq
	 0.000e+000  sigma, C/m**2
	 0.000e+000  psi, V
	-0.000e+000  -F*psi/RT
	 1.000e+000  exp(-F*psi/RT)
	 1.000e+000  specific area, m**2/g
	 1.000e+100  m**2 for  1.000e+100 g


Solid         
	 1.000e+100  moles
	                                   Mole                     Log
	Species               Moles    Fraction    Molality    Molality

	Solid            1.000e+100       1.000  1.000e+100     100.000

-----------------------------Solution composition------------------------------

	Elements           Molality       Moles

	C                1.000e-003  1.000e-003
	Ca               4.118e-004  4.118e-004

----------------------------Description of solution----------------------------

                                       pH  =   7.000      Charge balance
                                       pe  =   4.000      Adjusted to redox equilibrium
       Specific Conductance (uS/cm, 25 oC) = 81
                          Density (g/cm3)  =   0.99710
                        Activity of water  =   1.000
                           Ionic strength  =  1.228e-003
                       Mass of water (kg)  =  1.000e+000
                 Total alkalinity (eq/kg)  =  8.236e-004
                       Total CO2 (mol/kg)  =  1.000e-003
                      Temperature (deg C)  =  25.000
                  Electrical balance (eq)  =  1.025e-011
 Percent error, 100*(Cat-|An|)/(Cat+|An|)  =   0.00
                               Iterations  =   0
                                  Total H  = 1.110133e+002
                                  Total O  = 5.550904e+001

----------------------------Distribution of species----------------------------

                                                   Log       Log         Log 
   Species                 Molality    Activity  Molality  Activity     Gamma

   OH-                   1.041e-007  1.001e-007    -6.982    -7.000    -0.017
   H+                    1.038e-007  1.000e-007    -6.984    -7.000    -0.016
   H2O                   5.551e+001  1.000e+000     1.744    -0.000     0.000
C(-4)           0.000e+000
   CH4                   0.000e+000  0.000e+000   -67.362   -67.362     0.000
C(4)            1.000e-003
   HCO3-                 8.187e-004  7.876e-004    -3.087    -3.104    -0.017
   CO2                   1.770e-004  1.771e-004    -3.752    -3.752     0.000
   CaHCO3+               3.649e-006  3.511e-006    -5.438    -5.455    -0.017
   CO3-2                 4.312e-007  3.694e-007    -6.365    -6.433    -0.067
   CaCO3                 2.167e-007  2.168e-007    -6.664    -6.664     0.000
Ca              4.118e-004
   Ca+2                  4.079e-004  3.494e-004    -3.389    -3.457    -0.067
   CaHCO3+               3.649e-006  3.511e-006    -5.438    -5.455    -0.017
   CaCO3                 2.167e-007  2.168e-007    -6.664    -6.664     0.000
   CaOH+                 6.030e-010  5.798e-010    -9.220    -9.237    -0.017
H(0)            1.415e-025
   H2                    7.077e-026  7.079e-026   -25.150   -25.150     0.000
O(0)            0.000e+000
   O2                    0.000e+000  0.000e+000   -42.080   -42.080     0.000

------------------------------Saturation indices-------------------------------

	Phase               SI log IAP  log KT

	Aragonite        -1.55   -9.89   -8.34  CaCO3
	Calcite          -1.41   -9.89   -8.48  CaCO3
	CH4(g)          -64.50  -67.36   -2.86  CH4
	CO2(g)           -2.28   -3.75   -1.47  CO2
	H2(g)           -22.00  -25.15   -3.15  H2
	H2O(g)           -1.51   -0.00    1.51  H2O
	O2(g)           -39.19  -42.08   -2.89  O2

Using solution 18.	
Using surface 18.	Surface defined in simulation 4.

------------------------------Surface composition------------------------------

Solid         
	 0.000e+000  Surface charge, eq
	 0.000e+000  sigma, C/m**2
	 0.000e+000  psi, V
	-0.000e+000  -F*psi/RT
	 1.000e+000  exp(-F*psi/RT)
	 1.000e+000  specific area, m**2/g
	 1.000e+100  m**2 for  1.000e+100 g


Solid         
	 1.000e+100  moles
	                                   Mole                     Log
	Species               Moles    Fraction    Molality    Molality

	Solid            1.000e+100       1.000  1.000e+100     100.000

-----------------------------Solution composition------------------------------

	Elements           Molality       Moles

	C                1.000e-003  1.000e-003
	Ca               4.118e-004  4.118e-004

----------------------------Description of solution----------------------------

                                       pH  =   7.000      Charge balance
                                       pe  =   4.000      Adjusted to redox equilibrium
       Specific Conductance (uS/cm, 25 oC) = 81
                          Density (g/cm3)  =   0.99710
                        Activity of water  =   1.000
                           Ionic strength  =  1.228e-003
                       Mass of water (kg)  =  1.000e+000
                 Total alkalinity (eq/kg)  =  8.236e-004
                       Total CO2 (mol/kg)  =  1.000e-003
                      Temperature (deg C)  =  25.000
                  Electrical balance (eq)  =  1.025e-011
 Percent error, 100*(Cat-|An|)/(Cat+|An|)  =   0.00
                               Iterations  =   0
                                  Total H  = 1.110133e+002
                                  Total O  = 5.550904e+001

----------------------------Distribution of species----------------------------

                                                   Log       Log         Log 
   Species                 Molality    Activity  Molality  Activity     Gamma

   OH-                   1.041e-007  1.001e-007    -6.982    -7.000    -0.017
   H+                    1.038e-007  1.000e-007    -6.984    -7.000    -0.016
   H2O                   5.551e+001  1.000e+000     1.744    -0.000     0.000
C(-4)           0.000e+000
   CH4                   0.000e+000  0.000e+000   -67.362   -67.362     0.000
C(4)            1.000e-003
   HCO3-                 8.187e-004  7.876e-004    -3.087    -3.104    -0.017
   CO2                   1.770e-004  1.771e-004    -3.752    -3.752     0.000
   CaHCO3+               3.649e-006  3.511e-006    -5.438    -5.455    -0.017
   CO3-2                 4.312e-007  3.694e-007    -6.365    -6.433    -0.067
   CaCO3                 2.167e-007  2.168e-007    -6.664    -6.664     0.000
Ca              4.118e-004
   Ca+2                  4.079e-004  3.494e-004    -3.389    -3.457    -0.067
   CaHCO3+               3.649e-006  3.511e-006    -5.438    -5.455    -0.017
   CaCO3                 2.167e-007  2.168e-007    -6.664    -6.664     0.000
   CaOH+                 6.030e-010  5.798e-010    -9.220    -9.237    -0.017
H(0)            1.415e-025
   H2                    7.077e-026  7.079e-026   -25.150   -25.150     0.000
O(0)            0.000e+000
   O2                    0.000e+000  0.000e+000   -42.080   -42.080     0.000

------------------------------Saturation indices-------------------------------

	Phase               SI log IAP  log KT

	Aragonite        -1.55   -9.89   -8.34  CaCO3
	Calcite          -1.41   -9.89   -8.48  CaCO3
	CH4(g)          -64.50  -67.36   -2.86  CH4
	CO2(g)           -2.28   -3.75   -1.47  CO2
	H2(g)           -22.00  -25.15   -3.15  H2
	H2O(g)           -1.51   -0.00    1.51  H2O
	O2(g)           -39.19  -42.08   -2.89  O2

Using solution 19.	
Using surface 19.	Surface defined in simulation 4.

------------------------------Surface composition------------------------------

Solid         
	 0.000e+000  Surface charge, eq
	 0.000e+000  sigma, C/m**2
	 0.000e+000  psi, V
	-0.000e+000  -F*psi/RT
	 1.000e+000  exp(-F*psi/RT)
	 1.000e+000  specific area, m**2/g
	 1.000e+100  m**2 for  1.000e+100 g


Solid         
	 1.000e+100  moles
	                                   Mole                     Log
	Species               Moles    Fraction    Molality    Molality

	Solid            1.000e+100       1.000  1.000e+100     100.000

-----------------------------Solution composition------------------------------

	Elements           Molality       Moles

	C                1.000e-003  1.000e-003
	Ca               4.118e-004  4.118e-004

----------------------------Description of solution----------------------------

                                       pH  =   7.000      Charge balance
                                       pe  =   4.000      Adjusted to redox equilibrium
       Specific Conductance (uS/cm, 25 oC) = 81
                          Density (g/cm3)  =   0.99710
                        Activity of water  =   1.000
                           Ionic strength  =  1.228e-003
                       Mass of water (kg)  =  1.000e+000
                 Total alkalinity (eq/kg)  =  8.236e-004
                       Total CO2 (mol/kg)  =  1.000e-003
                      Temperature (deg C)  =  25.000
                  Electrical balance (eq)  =  1.025e-011
 Percent error, 100*(Cat-|An|)/(Cat+|An|)  =   0.00
                               Iterations  =   0
                                  Total H  = 1.110133e+002
                                  Total O  = 5.550904e+001

----------------------------Distribution of species----------------------------

                                                   Log       Log         Log 
   Species                 Molality    Activity  Molality  Activity     Gamma

   OH-                   1.041e-007  1.001e-007    -6.982    -7.000    -0.017
   H+                    1.038e-007  1.000e-007    -6.984    -7.000    -0.016
   H2O                   5.551e+001  1.000e+000     1.744    -0.000     0.000
C(-4)           0.000e+000
   CH4                   0.000e+000  0.000e+000   -67.362   -67.362     0.000
C(4)            1.000e-003
   HCO3-                 8.187e-004  7.876e-004    -3.087    -3.104    -0.017
   CO2                   1.770e-004  1.771e-004    -3.752    -3.752     0.000
   CaHCO3+               3.649e-006  3.511e-006    -5.438    -5.455    -0.017
   CO3-2                 4.312e-007  3.694e-007    -6.365    -6.433    -0.067
   CaCO3                 2.167e-007  2.168e-007    -6.664    -6.664     0.000
Ca              4.118e-004
   Ca+2                  4.079e-004  3.494e-004    -3.389    -3.457    -0.067
   CaHCO3+               3.649e-006  3.511e-006    -5.438    -5.455    -0.017
[...]
H(0)            0.000e+000
   H2                    0.000e+000  0.000e+000   -41.958   -41.958     0.000
O(0)            6.851e-009
   O2                    3.425e-009  3.427e-009    -8.465    -8.465     0.000
[224Ra]         2.071e-009
   [224Ra]               2.071e-009  2.073e-009    -8.684    -8.683     0.000

------------------------------Saturation indices-------------------------------

	Phase               SI log IAP  log KT

	Aragonite        -1.25   -9.59   -8.34  CaCO3
	Calcite          -1.11   -9.59   -8.48  CaCO3
	CH4(g)         -131.74 -134.60   -2.86  CH4
	CO2(g)           -2.29   -3.76   -1.47  CO2
	H2(g)           -38.81  -41.96   -3.15  H2
	H2O(g)           -1.51   -0.00    1.51  H2O
	O2(g)            -5.57   -8.47   -2.89  O2

Using mix 42.	 
Using surface 42.	Surface assemblage after simulation 5.
Using kinetics 42.	Kinetics defined in simulation 4.

Mixture 42.	 

	 2.150e-001 Solution 41	Solution after simulation 5.                           
	 2.150e-001 Solution 43	Solution after simulation 5.                           
	 5.700e-001 Solution 42	Solution after simulation 5.                           

Kinetics 42.	Kinetics defined in simulation 4.

	Time:      720000 seconds
	Time step: 72000 seconds

	Rate name       Delta Moles Total Moles   Reactant        Coefficient

	Add_Ra          -8.333e-009  1.000e+000   [224Ra]                   1
	Decay_Ra         8.255e-009  1.000e+000   [224Ra]                   1

------------------------------Surface composition------------------------------

Solid         
	 0.000e+000  Surface charge, eq
	 0.000e+000  sigma, C/m**2
	 0.000e+000  psi, V
	-0.000e+000  -F*psi/RT
	 1.000e+000  exp(-F*psi/RT)
	 1.000e+000  specific area, m**2/g
	 1.000e+100  m**2 for  1.000e+100 g


Solid         
	 1.000e+100  moles
	                                   Mole                     Log
	Species               Moles    Fraction    Molality    Molality

	Solid            1.000e+100       1.000  1.000e+100     100.000
	Solid[224Ra]     5.059e-008       0.000  5.059e-008      -7.296

-----------------------------Solution composition------------------------------

	Elements           Molality       Moles

	[224Ra]          2.534e-009  2.534e-009
	C                1.000e-003  1.000e-003
	Ca               9.079e-004  9.079e-004
	Cl               9.886e-004  9.886e-004

----------------------------Description of solution----------------------------

                                       pH  =   7.000      Charge balance
                                       pe  =  12.401      Adjusted to redox equilibrium
       Specific Conductance (uS/cm, 25 oC) = 205
                          Density (g/cm3)  =   0.99715
                        Activity of water  =   1.000
                           Ionic strength  =  2.708e-003
                       Mass of water (kg)  =  1.000e+000
                 Total alkalinity (eq/kg)  =  8.271e-004
                       Total CO2 (mol/kg)  =  1.000e-003
                      Temperature (deg C)  =  25.000
                  Electrical balance (eq)  =  2.220e-013
 Percent error, 100*(Cat-|An|)/(Cat+|An|)  =   0.00
                               Iterations  =   5
                                  Total H  = 1.110133e+002
                                  Total O  = 5.550904e+001

----------------------------Distribution of species----------------------------

                                                   Log       Log         Log 
   Species                 Molality    Activity  Molality  Activity     Gamma

   OH-                   1.060e-007  1.001e-007    -6.975    -7.000    -0.025
   H+                    1.054e-007  1.000e-007    -6.977    -7.000    -0.023
   H2O                   5.551e+001  1.000e+000     1.744    -0.000     0.000
C(-4)           0.000e+000
   CH4                   0.000e+000  0.000e+000  -134.576  -134.576     0.000
C(4)            1.000e-003
   HCO3-                 8.178e-004  7.734e-004    -3.087    -3.112    -0.024
   CO2                   1.738e-004  1.739e-004    -3.760    -3.760     0.000
   CaHCO3+               7.507e-006  7.099e-006    -5.125    -5.149    -0.024
   CO3-2                 4.535e-007  3.627e-007    -6.343    -6.440    -0.097
   CaCO3                 4.380e-007  4.383e-007    -6.358    -6.358     0.000
Ca              9.079e-004
   Ca+2                  8.999e-004  7.194e-004    -3.046    -3.143    -0.097
   CaHCO3+               7.507e-006  7.099e-006    -5.125    -5.149    -0.024
   CaCO3                 4.380e-007  4.383e-007    -6.358    -6.358     0.000
   CaOH+                 1.264e-009  1.194e-009    -8.898    -8.923    -0.025
Cl              9.886e-004
   Cl-                   9.886e-004  9.334e-004    -3.005    -3.030    -0.025
H(0)            0.000e+000
   H2                    0.000e+000  0.000e+000   -41.952   -41.952     0.000
O(0)            6.669e-009
   O2                    3.335e-009  3.337e-009    -8.477    -8.477     0.000
[224Ra]         2.534e-009
   [224Ra]               2.534e-009  2.536e-009    -8.596    -8.596     0.000

------------------------------Saturation indices-------------------------------

	Phase               SI log IAP  log KT

	Aragonite        -1.25   -9.58   -8.34  CaCO3
	Calcite          -1.10   -9.58   -8.48  CaCO3
	CH4(g)         -131.72 -134.58   -2.86  CH4
	CO2(g)           -2.29   -3.76   -1.47  CO2
	H2(g)           -38.80  -41.95   -3.15  H2
	H2O(g)           -1.51   -0.00    1.51  H2O
	O2(g)            -5.58   -8.48   -2.89  O2

Using mix 43.	 
Using surface 43.	Surface assemblage after simulation 5.
Using kinetics 43.	Kinetics defined in simulation 4.

Mixture 43.	 

	 2.150e-001 Solution 42	Solution after simulation 5.                           
	 2.150e-001 Solution 44	Solution after simulation 5.                           
	 5.700e-001 Solution 43	Solution after simulation 5.                           

Kinetics 43.	Kinetics defined in simulation 4.

	Time:      720000 seconds
	Time step: 72000 seconds

	Rate name       Delta Moles Total Moles   Reactant        Coefficient

	Add_Ra          -8.333e-009  1.000e+000   [224Ra]                   1
	Decay_Ra         2.068e-008  1.000e+000   [224Ra]                   1

------------------------------Surface composition------------------------------

Solid         
	 0.000e+000  Surface charge, eq
	 0.000e+000  sigma, C/m**2
	 0.000e+000  psi, V
	-0.000e+000  -F*psi/RT
	 1.000e+000  exp(-F*psi/RT)
	 1.000e+000  specific area, m**2/g
	 1.000e+100  m**2 for  1.000e+100 g


Solid         
	 1.000e+100  moles
	                                   Mole                     Log
	Species               Moles    Fraction    Molality    Molality

	Solid            1.000e+100       1.000  1.000e+100     100.000
	Solid[224Ra]     1.222e-007       0.000  1.222e-007      -6.913

-----------------------------Solution composition------------------------------

	Elements           Molality       Moles

	[224Ra]          6.122e-009  6.122e-009
	C                1.000e-003  1.000e-003
	Ca               9.116e-004  9.116e-004
	Cl               9.960e-004  9.960e-004

----------------------------Description of solution----------------------------

                                       pH  =   7.000      Charge balance
                                       pe  =  12.406      Adjusted to redox equilibrium
       Specific Conductance (uS/cm, 25 oC) = 206
                          Density (g/cm3)  =   0.99715
                        Activity of water  =   1.000
                           Ionic strength  =  2.719e-003
                       Mass of water (kg)  =  1.000e+000
                 Total alkalinity (eq/kg)  =  8.271e-004
                       Total CO2 (mol/kg)  =  1.000e-003
                      Temperature (deg C)  =  25.000
                  Electrical balance (eq)  =  5.744e-014
 Percent error, 100*(Cat-|An|)/(Cat+|An|)  =   0.00
                               Iterations  =  10
                                  Total H  = 1.110133e+002
                                  Total O  = 5.550904e+001

----------------------------Distribution of species----------------------------

                                                   Log       Log         Log 
   Species                 Molality    Activity  Molality  Activity     Gamma

   OH-                   1.060e-007  1.001e-007    -6.975    -7.000    -0.025
   H+                    1.054e-007  1.000e-007    -6.977    -7.000    -0.023
   H2O                   5.551e+001  1.000e+000     1.744    -0.000     0.000
C(-4)           0.000e+000
   CH4                   0.000e+000  0.000e+000  -134.615  -134.615     0.000
C(4)            1.000e-003
   HCO3-                 8.178e-004  7.733e-004    -3.087    -3.112    -0.024
   CO2                   1.738e-004  1.739e-004    -3.760    -3.760     0.000
   CaHCO3+               7.534e-006  7.124e-006    -5.123    -5.147    -0.024
   CO3-2                 4.536e-007  3.626e-007    -6.343    -6.441    -0.097
   CaCO3                 4.396e-007  4.399e-007    -6.357    -6.357     0.000
Ca              9.116e-004
   Ca+2                  9.036e-004  7.221e-004    -3.044    -3.141    -0.097
   CaHCO3+               7.534e-006  7.124e-006    -5.123    -5.147    -0.024
   CaCO3                 4.396e-007  4.399e-007    -6.357    -6.357     0.000
   CaOH+                 1.269e-009  1.198e-009    -8.897    -8.921    -0.025
Cl              9.960e-004
   Cl-                   9.960e-004  9.403e-004    -3.002    -3.027    -0.025
H(0)            0.000e+000
   H2                    0.000e+000  0.000e+000   -41.962   -41.961     0.000
O(0)            6.972e-009
   O2                    3.486e-009  3.488e-009    -8.458    -8.457     0.000
[224Ra]         6.122e-009
   [224Ra]               6.122e-009  6.126e-009    -8.213    -8.213     0.000

------------------------------Saturation indices-------------------------------

	Phase               SI log IAP  log KT

	Aragonite        -1.25   -9.58   -8.34  CaCO3
	Calcite          -1.10   -9.58   -8.48  CaCO3
	CH4(g)         -131.75 -134.61   -2.86  CH4
	CO2(g)           -2.29   -3.76   -1.47  CO2
	H2(g)           -38.81  -41.96   -3.15  H2
	H2O(g)           -1.51   -0.00    1.51  H2O
	O2(g)            -5.57   -8.46   -2.89  O2

Using mix 44.	 
Using surface 44.	Surface assemblage after simulation 5.
Using kinetics 44.	Kinetics defined in simulation 4.

Mixture 44.	 

	 2.150e-001 Solution 43	Solution after simulation 5.                           
	 2.150e-001 Solution 45	Solution after simulation 5.                           
	 5.700e-001 Solution 44	Solution after simulation 5.                           

Kinetics 44.	Kinetics defined in simulation 4.

	Time:      720000 seconds
	Time step: 72000 seconds

	Rate name       Delta Moles Total Moles   Reactant        Coefficient

	Add_Ra          -8.333e-009  1.000e+000   [224Ra]                   1
	Decay_Ra         9.569e-008  1.000e+000   [224Ra]                   1

------------------------------Surface composition------------------------------

Solid         
	 0.000e+000  Surface charge, eq
	 0.000e+000  sigma, C/m**2
	 0.000e+000  psi, V
	-0.000e+000  -F*psi/RT
	 1.000e+000  exp(-F*psi/RT)
	 1.000e+000  specific area, m**2/g
	 1.000e+100  m**2 for  1.000e+100 g


Solid         
	 1.000e+100  moles
	                                   Mole                     Log
	Species               Moles    Fraction    Molality    Molality

	Solid            1.000e+100       1.000  1.000e+100     100.000
	Solid[224Ra]     5.559e-007       0.000  5.559e-007      -6.255

-----------------------------Solution composition------------------------------

	Elements           Molality       Moles

	[224Ra]          2.784e-008  2.784e-008
	C                1.000e-003  1.000e-003
	Ca               9.130e-004  9.130e-004
	Cl               9.988e-004  9.988e-004

----------------------------Description of solution----------------------------

                                       pH  =   7.000      Charge balance
                                       pe  =  12.417      Adjusted to redox equilibrium
       Specific Conductance (uS/cm, 25 oC) = 207
                          Density (g/cm3)  =   0.99715
                        Activity of water  =   1.000
                           Ionic strength  =  2.723e-003
                       Mass of water (kg)  =  1.000e+000
                 Total alkalinity (eq/kg)  =  8.271e-004
                       Total CO2 (mol/kg)  =  1.000e-003
                      Temperature (deg C)  =  25.000
                  Electrical balance (eq)  =  1.629e-014
 Percent error, 100*(Cat-|An|)/(Cat+|An|)  =   0.00
                               Iterations  =  19
                                  Total H  = 1.110133e+002
                                  Total O  = 5.550904e+001

----------------------------Distribution of species----------------------------

                                                   Log       Log         Log 
   Species                 Molality    Activity  Molality  Activity     Gamma

   OH-                   1.061e-007  1.001e-007    -6.974    -7.000    -0.025
   H+                    1.054e-007  1.000e-007    -6.977    -7.000    -0.023
   H2O                   5.551e+001  1.000e+000     1.744    -0.000     0.000
C(-4)           0.000e+000
   CH4                   0.000e+000  0.000e+000  -134.703  -134.703     0.000
C(4)            1.000e-003
   HCO3-                 8.178e-004  7.733e-004    -3.087    -3.112    -0.024
   CO2                   1.738e-004  1.739e-004    -3.760    -3.760     0.000
   CaHCO3+               7.544e-006  7.133e-006    -5.122    -5.147    -0.024
   CO3-2                 4.537e-007  3.626e-007    -6.343    -6.441    -0.097
   CaCO3                 4.402e-007  4.405e-007    -6.356    -6.356     0.000
Ca              9.130e-004
   Ca+2                  9.050e-004  7.231e-004    -3.043    -3.141    -0.097
   CaHCO3+               7.544e-006  7.133e-006    -5.122    -5.147    -0.024
   CaCO3                 4.402e-007  4.405e-007    -6.356    -6.356     0.000
   CaOH+                 1.271e-009  1.200e-009    -8.896    -8.921    -0.025
Cl              9.988e-004
   Cl-                   9.988e-004  9.429e-004    -3.001    -3.026    -0.025
H(0)            0.000e+000
   H2                    0.000e+000  0.000e+000   -41.984   -41.983     0.000
O(0)            7.716e-009
   O2                    3.858e-009  3.861e-009    -8.414    -8.413     0.000
[224Ra]         2.784e-008
   [224Ra]               2.784e-008  2.786e-008    -7.555    -7.555     0.000

------------------------------Saturation indices-------------------------------

	Phase               SI log IAP  log KT

	Aragonite        -1.25   -9.58   -8.34  CaCO3
	Calcite          -1.10   -9.58   -8.48  CaCO3
	CH4(g)         -131.84 -134.70   -2.86  CH4
	CO2(g)           -2.29   -3.76   -1.47  CO2
	H2(g)           -38.83  -41.98   -3.15  H2
	H2O(g)           -1.51   -0.00    1.51  H2O
	O2(g)            -5.52   -8.41   -2.89  O2

Using mix 45.	 
Using surface 45.	Surface assemblage after simulation 5.
Using kinetics 45.	Kinetics defined in simulation 4.

Mixture 45.	 

	 2.150e-001 Solution 44	Solution after simulation 5.                           
	 0.000e+000 Solution 46	Solution after simulation 5.                           
	 7.850e-001 Solution 45	Solution after simulation 5.                           

Kinetics 45.	Kinetics defined in simulation 4.

	Time:      720000 seconds
	Time step: 72000 seconds

	Rate name       Delta Moles Total Moles   Reactant        Coefficient

	Add_Ra          -8.333e-009  1.000e+000   [224Ra]                   1
	Decay_Ra         4.526e-007  1.000e+000   [224Ra]                   1

------------------------------Surface composition------------------------------

Solid         
	 0.000e+000  Surface charge, eq
	 0.000e+000  sigma, C/m**2
	 0.000e+000  psi, V
	-0.000e+000  -F*psi/RT
	 1.000e+000  exp(-F*psi/RT)
	 1.000e+000  specific area, m**2/g
	 1.000e+100  m**2 for  1.000e+100 g


Solid         
	 1.000e+100  moles
	                                   Mole                     Log
	Species               Moles    Fraction    Molality    Molality

	Solid            1.000e+100       1.000  1.000e+100     100.000
	Solid[224Ra]     2.594e-006       0.000  2.594e-006      -5.586

-----------------------------Solution composition------------------------------

	Elements           Molality       Moles

	[224Ra]          1.299e-007  1.299e-007
	C                1.000e-003  1.000e-003
	Ca               9.134e-004  9.134e-004
	Cl               9.997e-004  9.997e-004

----------------------------Description of solution----------------------------

                                       pH  =   7.000      Charge balance
                                       pe  =  12.383      Adjusted to redox equilibrium
       Specific Conductance (uS/cm, 25 oC) = 207
                          Density (g/cm3)  =   0.99715
                        Activity of water  =   1.000
                           Ionic strength  =  2.724e-003
                       Mass of water (kg)  =  1.000e+000
                 Total alkalinity (eq/kg)  =  8.271e-004
                       Total CO2 (mol/kg)  =  1.000e-003
                      Temperature (deg C)  =  25.000
                  Electrical balance (eq)  =  3.911e-015
 Percent error, 100*(Cat-|An|)/(Cat+|An|)  =   0.00
                               Iterations  =  20
                                  Total H  = 1.110133e+002
                                  Total O  = 5.550904e+001

----------------------------Distribution of species----------------------------

                                                   Log       Log         Log 
   Species                 Molality    Activity  Molality  Activity     Gamma

   OH-                   1.061e-007  1.001e-007    -6.974    -7.000    -0.025
   H+                    1.054e-007  1.000e-007    -6.977    -7.000    -0.023
   H2O                   5.551e+001  1.000e+000     1.744    -0.000     0.000
C(-4)           0.000e+000
   CH4                   0.000e+000  0.000e+000  -134.435  -134.435     0.000
C(4)            1.000e-003
   HCO3-                 8.178e-004  7.732e-004    -3.087    -3.112    -0.024
   CO2                   1.738e-004  1.739e-004    -3.760    -3.760     0.000
   CaHCO3+               7.548e-006  7.137e-006    -5.122    -5.147    -0.024
   CO3-2                 4.537e-007  3.626e-007    -6.343    -6.441    -0.097
   CaCO3                 4.404e-007  4.407e-007    -6.356    -6.356     0.000
Ca              9.134e-004
   Ca+2                  9.054e-004  7.234e-004    -3.043    -3.141    -0.097
   CaHCO3+               7.548e-006  7.137e-006    -5.122    -5.147    -0.024
   CaCO3                 4.404e-007  4.407e-007    -6.356    -6.356     0.000
   CaOH+                 1.271e-009  1.200e-009    -8.896    -8.921    -0.025
Cl              9.997e-004
   Cl-                   9.997e-004  9.437e-004    -3.000    -3.025    -0.025
H(0)            0.000e+000
   H2                    0.000e+000  0.000e+000   -41.917   -41.916     0.000
O(0)            5.668e-009
   O2                    2.834e-009  2.836e-009    -8.548    -8.547     0.000
[224Ra]         1.299e-007
   [224Ra]               1.299e-007  1.300e-007    -6.886    -6.886     0.000

------------------------------Saturation indices-------------------------------

	Phase               SI log IAP  log KT

	Aragonite        -1.25   -9.58   -8.34  CaCO3
	Calcite          -1.10   -9.58   -8.48  CaCO3
	CH4(g)         -131.57 -134.43   -2.86  CH4
	CO2(g)           -2.29   -3.76   -1.47  CO2
	H2(g)           -38.77  -41.92   -3.15  H2
	H2O(g)           -1.51   -0.00    1.51  H2O
	O2(g)            -5.65   -8.55   -2.89  O2

------------------
End of simulation.
------------------

------------------------------------
Reading input data for simulation 6.
------------------------------------

-----------
End of run.
-----------

