   Input file: lam10
  Output file: lam10.out
Database file: ../database/wateq4f.dat

------------------
Reading data base.
------------------

	SOLUTION_MASTER_SPECIES
	SOLUTION_SPECIES
	PHASES
	EXCHANGE_MASTER_SPECIES
	EXCHANGE_SPECIES
	SURFACE_MASTER_SPECIES
	SURFACE_SPECIES
	RATES
	END
------------------------------------
Reading input data for simulation 1.
------------------------------------

	DATABASE ../database/wateq4f.dat
	knobs
		logfile
	TITLE Part 1.--Input ambient solution for later equilibriation needs
	SOLUTION 1  Ambient Groundwater--Active aquitard
	        units   ppm
	        pH      7.75
	        temp    25.0
	        Ca              155.
	        Mg              67.7
	        Na              63.35
	        K               2.8
	        Fe              0.036
	        Mn              0.115
	        Cl              19.5
	        Alkalinity      584.    as CaCO3
	        S(6)            289.    charge
	        N(5)            0.078   as NO3
	        F               2.10
	        Al              0.041
	        Ba              0.050
	        B               0.206
	        Cu              0.001
	        Ni              0.005
	        P               0.548
	        Sr              1.663
	        Zn              0.003
	SURFACE  1
	        equilibrate with solution 1
	        Hfo_w   1.0     600.     0.3
	        no_edl
	SAVE surface 1
	EXCHANGE 1
	        equilibrate with solution 1
	        X       1.0
	SAVE exchange 1
	USE surface none
	END
-----
TITLE
-----

 Part 1.--Input ambient solution for later equilibriation needs

-------------------------------------------
Beginning of initial solution calculations.
-------------------------------------------

Initial solution 1.	Ambient Groundwater--Active aquitard

WARNING: Equivalent wt for alkalinity should be Ca.5(CO3).5. Using 50.0455 g/eq.
-----------------------------Solution composition------------------------------

	Elements           Molality       Moles

	Al               1.521e-006  1.521e-006
	Alkalinity       1.168e-002  1.168e-002
	B                1.908e-005  1.908e-005
	Ba               3.645e-007  3.645e-007
	Ca               3.872e-003  3.872e-003
	Cl               5.507e-004  5.507e-004
	Cu               1.576e-008  1.576e-008
	F                1.107e-004  1.107e-004
	Fe               6.454e-007  6.454e-007
	K                7.169e-005  7.169e-005
	Mg               2.788e-003  2.788e-003
	Mn               2.096e-006  2.096e-006
	N(5)             1.259e-006  1.259e-006
	Na               2.759e-003  2.759e-003
	Ni               8.527e-008  8.527e-008
	P                1.771e-005  1.771e-005
	S(6)             1.918e-003  1.918e-003  Charge balance
	Sr               1.900e-005  1.900e-005
	Zn               4.595e-008  4.595e-008

----------------------------Description of solution----------------------------

                                       pH  =   7.750    
                                       pe  =   4.000    
                        Activity of water  =   1.000
                           Ionic strength  =  2.138e-002
                       Mass of water (kg)  =  1.000e+000
                    Total carbon (mol/kg)  =  1.188e-002
                       Total CO2 (mol/kg)  =  1.188e-002
                      Temperature (deg C)  =  25.000
                  Electrical balance (eq)  =  1.859e-016
 Percent error, 100*(Cat-|An|)/(Cat+|An|)  =   0.00
                               Iterations  =  10
                                  Total H  = 1.110239e+002
                                  Total O  = 5.554929e+001

----------------------------Distribution of species----------------------------

                                                   Log       Log         Log 
   Species                 Molality    Activity  Molality  Activity     Gamma

   OH-                   6.486e-007  5.627e-007    -6.188    -6.250    -0.062
   H+                    2.004e-008  1.778e-008    -7.698    -7.750    -0.052
   H2O                   5.551e+001  9.996e-001     1.744    -0.000     0.000
Al              1.521e-006
   Al(OH)4-              1.507e-006  1.307e-006    -5.822    -5.884    -0.062
   Al(OH)3               1.228e-008  1.234e-008    -7.911    -7.909     0.002
   Al(OH)2+              1.717e-009  1.490e-009    -8.765    -8.827    -0.062
   AlF2+                 2.629e-010  2.281e-010    -9.580    -9.642    -0.062
   AlF3                  2.477e-010  2.490e-010    -9.606    -9.604     0.002
   AlF4-                 9.905e-012  8.593e-012   -11.004   -11.066    -0.062
   AlF+2                 9.268e-012  5.250e-012   -11.033   -11.280    -0.247
   AlOH+2                5.969e-012  3.381e-012   -11.224   -11.471    -0.247
   Al+3                  2.175e-014  6.056e-015   -13.663   -14.218    -0.555
   AlSO4+                1.729e-014  1.500e-014   -13.762   -13.824    -0.062
   Al(SO4)2-             4.283e-016  3.716e-016   -15.368   -15.430    -0.062
   AlHSO4+2              4.175e-023  2.365e-023   -22.379   -22.626    -0.247
B               1.908e-005
   H3BO3                 1.839e-005  1.848e-005    -4.735    -4.733     0.002
   H2BO3-                6.893e-007  5.980e-007    -6.162    -6.223    -0.062
   BF(OH)3-              7.352e-010  6.378e-010    -9.134    -9.195    -0.062
   BF2(OH)2-             1.215e-013  1.054e-013   -12.915   -12.977    -0.062
   BF3OH-                2.054e-019  1.782e-019   -18.687   -18.749    -0.062
   BF4-                  1.291e-024  1.120e-024   -23.889   -23.951    -0.062
Ba              3.645e-007
   Ba+2                  2.830e-007  1.603e-007    -6.548    -6.795    -0.247
   BaSO4                 6.262e-008  6.293e-008    -7.203    -7.201     0.002
   BaHCO3+               1.684e-008  1.461e-008    -7.774    -7.835    -0.062
   BaCO3                 2.066e-009  2.076e-009    -8.685    -8.683     0.002
   BaOH+                 3.519e-013  3.053e-013   -12.454   -12.515    -0.062
C(4)            1.188e-002
   HCO3-                 1.089e-002  9.507e-003    -1.963    -2.022    -0.059
   CO2                   3.784e-004  3.802e-004    -3.422    -3.420     0.002
   CaHCO3+               2.620e-004  2.273e-004    -3.582    -3.643    -0.062
   MgHCO3+               1.745e-004  1.514e-004    -3.758    -3.820    -0.062
   CaCO3                 7.836e-005  7.875e-005    -4.106    -4.104     0.002
   CO3-2                 4.322e-005  2.507e-005    -4.364    -4.601    -0.237
   MgCO3                 3.240e-005  3.256e-005    -4.489    -4.487     0.002
   NaHCO3                1.264e-005  1.270e-005    -4.898    -4.896     0.002
   SrHCO3+               1.542e-006  1.346e-006    -5.812    -5.871    -0.059
   NaCO3-                1.279e-006  1.109e-006    -5.893    -5.955    -0.062
   MnCO3                 8.534e-007  8.576e-007    -6.069    -6.067     0.002
   MnHCO3+               4.206e-007  3.649e-007    -6.376    -6.438    -0.062
   SrCO3                 1.481e-007  1.481e-007    -6.829    -6.829     0.000
   NiCO3                 7.780e-008  7.819e-008    -7.109    -7.107     0.002
   ZnCO3                 1.739e-008  1.747e-008    -7.760    -7.758     0.002
   BaHCO3+               1.684e-008  1.461e-008    -7.774    -7.835    -0.062
   Zn(CO3)2-2            1.653e-008  9.365e-009    -7.782    -8.028    -0.247
   FeHCO3+               1.172e-008  1.017e-008    -7.931    -7.993    -0.062
   CuCO3                 9.804e-009  9.852e-009    -8.009    -8.006     0.002
   FeCO3                 6.403e-009  6.434e-009    -8.194    -8.191     0.002
   Ni(CO3)2-2            6.013e-009  3.407e-009    -8.221    -8.468    -0.247
   ZnHCO3+               4.818e-009  4.180e-009    -8.317    -8.379    -0.062
   BaCO3                 2.066e-009  2.076e-009    -8.685    -8.683     0.002
   NiHCO3+               6.363e-010  5.521e-010    -9.196    -9.258    -0.062
   Cu(CO3)2-2            5.489e-010  3.110e-010    -9.260    -9.507    -0.247
   CuHCO3+               4.019e-010  3.487e-010    -9.396    -9.458    -0.062
Ca              3.872e-003
   Ca+2                  3.233e-003  1.875e-003    -2.490    -2.727    -0.237
   CaSO4                 2.916e-004  2.930e-004    -3.535    -3.533     0.002
   CaHCO3+               2.620e-004  2.273e-004    -3.582    -3.643    -0.062
   CaCO3                 7.836e-005  7.875e-005    -4.106    -4.104     0.002
   CaHPO4                4.053e-006  4.073e-006    -5.392    -5.390     0.002
   CaF+                  1.632e-006  1.416e-006    -5.787    -5.849    -0.062
   CaPO4-                6.247e-007  5.419e-007    -6.204    -6.266    -0.062
   CaH2PO4+              6.276e-008  5.444e-008    -7.202    -7.264    -0.062
   CaOH+                 2.016e-008  1.749e-008    -7.695    -7.757    -0.062
   CaHSO4+               3.519e-011  3.053e-011   -10.454   -10.515    -0.062
Cl              5.507e-004
   Cl-                   5.507e-004  4.758e-004    -3.259    -3.323    -0.063
   MnCl+                 9.622e-010  8.348e-010    -9.017    -9.078    -0.062
   FeCl+                 8.100e-012  7.027e-012   -11.092   -11.153    -0.062
   ZnCl+                 5.156e-012  4.473e-012   -11.288   -11.349    -0.062
   ZnOHCl                3.078e-012  3.094e-012   -11.512   -11.510     0.002
   NiCl+                 5.796e-013  5.028e-013   -12.237   -12.299    -0.062
   CuCl2-                3.170e-013  2.750e-013   -12.499   -12.561    -0.062
   MnCl2                 1.725e-013  1.734e-013   -12.763   -12.761     0.002
   CuCl+                 1.080e-013  9.372e-014   -12.966   -13.028    -0.062
   ZnCl2                 2.218e-015  2.229e-015   -14.654   -14.652     0.002
   NiCl2                 8.645e-016  8.687e-016   -15.063   -15.061     0.002
   CuCl3-2               3.661e-016  2.074e-016   -15.436   -15.683    -0.247
   MnCl3-                2.619e-017  2.272e-017   -16.582   -16.644    -0.062
   CuCl2                 2.383e-017  2.395e-017   -16.623   -16.621     0.002
   ZnCl3-                1.372e-018  1.190e-018   -17.863   -17.924    -0.062
   FeCl+2                2.592e-019  1.468e-019   -18.586   -18.833    -0.247
   ZnCl4-2               5.010e-022  2.838e-022   -21.300   -21.547    -0.247
   FeCl2+                3.597e-022  3.121e-022   -21.444   -21.506    -0.062
   CuCl3-                4.661e-023  4.044e-023   -22.332   -22.393    -0.062
   FeCl3                 1.478e-026  1.485e-026   -25.830   -25.828     0.002
   CuCl4-2               1.702e-028  9.643e-029   -27.769   -28.016    -0.247
Cu(1)           4.744e-012
   Cu+                   4.427e-012  3.840e-012   -11.354   -11.416    -0.062
   CuCl2-                3.170e-013  2.750e-013   -12.499   -12.561    -0.062
   CuCl3-2               3.661e-016  2.074e-016   -15.436   -15.683    -0.247
Cu(2)           1.575e-008
   CuCO3                 9.804e-009  9.852e-009    -8.009    -8.006     0.002
   Cu(OH)2               4.807e-009  4.831e-009    -8.318    -8.316     0.002
   Cu(CO3)2-2            5.489e-010  3.110e-010    -9.260    -9.507    -0.247
   CuHCO3+               4.019e-010  3.487e-010    -9.396    -9.458    -0.062
   Cu+2                  1.292e-010  7.318e-011    -9.889   -10.136    -0.247
   CuOH+                 4.741e-011  4.113e-011   -10.324   -10.386    -0.062
   CuSO4                 1.165e-011  1.170e-011   -10.934   -10.932     0.002
   CuF+                  1.331e-013  1.154e-013   -12.876   -12.938    -0.062
   CuCl+                 1.080e-013  9.372e-014   -12.966   -13.028    -0.062
   Cu(OH)3-              1.886e-014  1.636e-014   -13.724   -13.786    -0.062
   Cu2(OH)2+2            1.307e-015  7.404e-016   -14.884   -15.131    -0.247
   CuCl2                 2.383e-017  2.395e-017   -16.623   -16.621     0.002
   Cu(OH)4-2             3.240e-019  1.835e-019   -18.490   -18.736    -0.247
   CuCl3-                4.661e-023  4.044e-023   -22.332   -22.393    -0.062
   CuCl4-2               1.702e-028  9.643e-029   -27.769   -28.016    -0.247
F               1.107e-004
   F-                    9.993e-005  8.669e-005    -4.000    -4.062    -0.062
   MgF+                  8.985e-006  7.795e-006    -5.046    -5.108    -0.062
   CaF+                  1.632e-006  1.416e-006    -5.787    -5.849    -0.062
   NaF                   1.180e-007  1.186e-007    -6.928    -6.926     0.002
   HF                    2.301e-009  2.312e-009    -8.638    -8.636     0.002
   BF(OH)3-              7.352e-010  6.378e-010    -9.134    -9.195    -0.062
   MnF+                  2.977e-010  2.583e-010    -9.526    -9.588    -0.062
   AlF2+                 2.629e-010  2.281e-010    -9.580    -9.642    -0.062
   AlF3                  2.477e-010  2.490e-010    -9.606    -9.604     0.002
   FeF+                  1.069e-011  9.275e-012   -10.971   -11.033    -0.062
   AlF4-                 9.905e-012  8.593e-012   -11.004   -11.066    -0.062
   AlF+2                 9.268e-012  5.250e-012   -11.033   -11.280    -0.247
   ZnF+                  4.930e-012  4.277e-012   -11.307   -11.369    -0.062
   HF2-                  8.865e-013  7.691e-013   -12.052   -12.114    -0.062
   NiF+                  8.388e-013  7.277e-013   -12.076   -12.138    -0.062
   CuF+                  1.331e-013  1.154e-013   -12.876   -12.938    -0.062
   BF2(OH)2-             1.215e-013  1.054e-013   -12.915   -12.977    -0.062
   FeF2+                 5.585e-015  4.845e-015   -14.253   -14.315    -0.062
   FeF+2                 2.478e-015  1.404e-015   -14.606   -14.853    -0.247
   FeF3                  6.624e-016  6.657e-016   -15.179   -15.177     0.002
   H2F2                  1.386e-017  1.393e-017   -16.858   -16.856     0.002
   BF3OH-                2.054e-019  1.782e-019   -18.687   -18.749    -0.062
   BF4-                  1.291e-024  1.120e-024   -23.889   -23.951    -0.062
Fe(2)           3.891e-008
   Fe+2                  1.889e-008  1.070e-008    -7.724    -7.971    -0.247
   FeHCO3+               1.172e-008  1.017e-008    -7.931    -7.993    -0.062
   FeCO3                 6.403e-009  6.434e-009    -8.194    -8.191     0.002
   FeSO4                 1.483e-009  1.490e-009    -8.829    -8.827     0.002
   FeOH+                 2.192e-010  1.902e-010    -9.659    -9.721    -0.062
   FeHPO4                1.679e-010  1.688e-010    -9.775    -9.773     0.002
   FeF+                  1.069e-011  9.275e-012   -10.971   -11.033    -0.062
   FeCl+                 8.100e-012  7.027e-012   -11.092   -11.153    -0.062
   FeH2PO4+              7.014e-012  6.085e-012   -11.154   -11.216    -0.062
   Fe(OH)2               9.054e-014  9.099e-014   -13.043   -13.041     0.002
   Fe(OH)3-              2.190e-016  1.900e-016   -15.659   -15.721    -0.062
   FeHSO4+               2.008e-016  1.742e-016   -15.697   -15.759    -0.062
Fe(3)           6.065e-007
   Fe(OH)3               4.974e-007  4.998e-007    -6.303    -6.301     0.002
   Fe(OH)2+              7.956e-008  6.902e-008    -7.099    -7.161    -0.062
   Fe(OH)4-              2.954e-008  2.562e-008    -7.530    -7.591    -0.062
   FeOH+2                6.546e-012  3.708e-012   -11.184   -11.431    -0.247
   FeF2+                 5.585e-015  4.845e-015   -14.253   -14.315    -0.062
   FeF+2                 2.478e-015  1.404e-015   -14.606   -14.853    -0.247
   FeF3                  6.624e-016  6.657e-016   -15.179   -15.177     0.002
   FeSO4+                1.011e-016  8.775e-017   -15.995   -16.057    -0.062
   Fe+3                  3.670e-017  1.022e-017   -16.435   -16.991    -0.555
   FeHPO4+               1.256e-017  1.090e-017   -16.901   -16.963    -0.062
   FeH2PO4+2             5.509e-018  3.121e-018   -17.259   -17.506    -0.247
   Fe(SO4)2-             1.733e-018  1.504e-018   -17.761   -17.823    -0.062
   FeCl+2                2.592e-019  1.468e-019   -18.586   -18.833    -0.247
   Fe2(OH)2+4            3.593e-021  3.701e-022   -20.444   -21.432    -0.987
   FeCl2+                3.597e-022  3.121e-022   -21.444   -21.506    -0.062
   FeHSO4+2              7.376e-024  4.179e-024   -23.132   -23.379    -0.247
   Fe3(OH)4+5            1.861e-025  5.337e-027   -24.730   -26.273    -1.542
   FeCl3                 1.478e-026  1.485e-026   -25.830   -25.828     0.002
H(0)            4.455e-027
   H2                    2.228e-027  2.239e-027   -26.652   -26.650     0.002
K               7.169e-005
   K+                    7.130e-005  6.161e-005    -4.147    -4.210    -0.063
   KSO4-                 3.909e-007  3.391e-007    -6.408    -6.470    -0.062
   KHPO4-                5.487e-010  4.760e-010    -9.261    -9.322    -0.062
Mg              2.788e-003
   Mg+2                  2.318e-003  1.361e-003    -2.635    -2.866    -0.231
   MgSO4                 2.487e-004  2.499e-004    -3.604    -3.602     0.002
   MgHCO3+               1.745e-004  1.514e-004    -3.758    -3.820    -0.062
   MgCO3                 3.240e-005  3.256e-005    -4.489    -4.487     0.002
   MgF+                  8.985e-006  7.795e-006    -5.046    -5.108    -0.062
   MgHPO4                3.978e-006  3.998e-006    -5.400    -5.398     0.002
   MgPO4-                6.116e-007  5.306e-007    -6.214    -6.275    -0.062
   MgOH+                 3.202e-007  2.778e-007    -6.495    -6.556    -0.062
   MgH2PO4+              5.801e-008  5.033e-008    -7.237    -7.298    -0.062
Mn(2)           2.096e-006
   MnCO3                 8.534e-007  8.576e-007    -6.069    -6.067     0.002
   Mn+2                  7.602e-007  4.306e-007    -6.119    -6.366    -0.247
   MnHCO3+               4.206e-007  3.649e-007    -6.376    -6.438    -0.062
   MnSO4                 5.969e-008  5.998e-008    -7.224    -7.222     0.002
   MnCl+                 9.622e-010  8.348e-010    -9.017    -9.078    -0.062
   MnOH+                 7.172e-010  6.222e-010    -9.144    -9.206    -0.062
   MnF+                  2.977e-010  2.583e-010    -9.526    -9.588    -0.062
   MnCl2                 1.725e-013  1.734e-013   -12.763   -12.761     0.002
   MnCl3-                2.619e-017  2.272e-017   -16.582   -16.644    -0.062
   Mn(NO3)2              2.037e-018  2.047e-018   -17.691   -17.689     0.002
   Mn(OH)3-              1.397e-018  1.212e-018   -17.855   -17.916    -0.062
Mn(3)           4.780e-028
   Mn+3                  4.780e-028  1.331e-028   -27.321   -27.876    -0.555
Mn(6)           0.000e+000
   MnO4-2                0.000e+000  0.000e+000   -46.560   -46.807    -0.247
Mn(7)           0.000e+000
   MnO4-                 0.000e+000  0.000e+000   -52.129   -52.191    -0.062
N(5)            1.259e-006
   NO3-                  1.259e-006  1.093e-006    -5.900    -5.962    -0.062
   Mn(NO3)2              2.037e-018  2.047e-018   -17.691   -17.689     0.002
Na              2.759e-003
   Na+                   2.734e-003  2.376e-003    -2.563    -2.624    -0.061
   NaHCO3                1.264e-005  1.270e-005    -4.898    -4.896     0.002
   NaSO4-                1.075e-005  9.330e-006    -4.968    -5.030    -0.062
   NaCO3-                1.279e-006  1.109e-006    -5.893    -5.955    -0.062
   NaF                   1.180e-007  1.186e-007    -6.928    -6.926     0.002
   NaHPO4-               2.116e-008  1.836e-008    -7.674    -7.736    -0.062
Ni              8.527e-008
   NiCO3                 7.780e-008  7.819e-008    -7.109    -7.107     0.002
   Ni(CO3)2-2            6.013e-009  3.407e-009    -8.221    -8.468    -0.247
   Ni+2                  7.426e-010  4.207e-010    -9.129    -9.376    -0.247
   NiHCO3+               6.363e-010  5.521e-010    -9.196    -9.258    -0.062
   NiSO4                 6.394e-011  6.425e-011   -10.194   -10.192     0.002
   NiOH+                 3.763e-012  3.264e-012   -11.425   -11.486    -0.062
   NiF+                  8.388e-013  7.277e-013   -12.076   -12.138    -0.062
   NiCl+                 5.796e-013  5.028e-013   -12.237   -12.299    -0.062
   Ni(OH)2               1.323e-013  1.329e-013   -12.879   -12.876     0.002
   Ni(SO4)2-2            4.771e-015  2.703e-015   -14.321   -14.568    -0.247
   NiCl2                 8.645e-016  8.687e-016   -15.063   -15.061     0.002
   Ni(OH)3-              8.613e-017  7.472e-017   -16.065   -16.127    -0.062
O(0)            1.654e-039
   O2                    8.270e-040  8.311e-040   -39.082   -39.080     0.002
P               1.771e-005
   HPO4-2                6.995e-006  3.962e-006    -5.155    -5.402    -0.247
   CaHPO4                4.053e-006  4.073e-006    -5.392    -5.390     0.002
   MgHPO4                3.978e-006  3.998e-006    -5.400    -5.398     0.002
   H2PO4-                1.308e-006  1.135e-006    -5.883    -5.945    -0.062
   CaPO4-                6.247e-007  5.419e-007    -6.204    -6.266    -0.062
   MgPO4-                6.116e-007  5.306e-007    -6.214    -6.275    -0.062
   CaH2PO4+              6.276e-008  5.444e-008    -7.202    -7.264    -0.062
   MgH2PO4+              5.801e-008  5.033e-008    -7.237    -7.298    -0.062
   NaHPO4-               2.116e-008  1.836e-008    -7.674    -7.736    -0.062
   KHPO4-                5.487e-010  4.760e-010    -9.261    -9.322    -0.062
   PO4-3                 3.608e-010  1.005e-010    -9.443    -9.998    -0.555
   FeHPO4                1.679e-010  1.688e-010    -9.775    -9.773     0.002
   FeH2PO4+              7.014e-012  6.085e-012   -11.154   -11.216    -0.062
   FeHPO4+               1.256e-017  1.090e-017   -16.901   -16.963    -0.062
   FeH2PO4+2             5.509e-018  3.121e-018   -17.259   -17.506    -0.247
S(6)            1.918e-003
   SO4-2                 1.365e-003  7.833e-004    -2.865    -3.106    -0.241
   CaSO4                 2.916e-004  2.930e-004    -3.535    -3.533     0.002
   MgSO4                 2.487e-004  2.499e-004    -3.604    -3.602     0.002
   NaSO4-                1.075e-005  9.330e-006    -4.968    -5.030    -0.062
   SrSO4                 1.406e-006  1.413e-006    -5.852    -5.850     0.002
   KSO4-                 3.909e-007  3.391e-007    -6.408    -6.470    -0.062
   BaSO4                 6.262e-008  6.293e-008    -7.203    -7.201     0.002
   MnSO4                 5.969e-008  5.998e-008    -7.224    -7.222     0.002
   HSO4-                 1.561e-009  1.354e-009    -8.807    -8.868    -0.062
   FeSO4                 1.483e-009  1.490e-009    -8.829    -8.827     0.002
   ZnSO4                 6.382e-010  6.414e-010    -9.195    -9.193     0.002
   NiSO4                 6.394e-011  6.425e-011   -10.194   -10.192     0.002
   CaHSO4+               3.519e-011  3.053e-011   -10.454   -10.515    -0.062
   CuSO4                 1.165e-011  1.170e-011   -10.934   -10.932     0.002
   Zn(SO4)2-2            7.209e-012  4.084e-012   -11.142   -11.389    -0.247
   AlSO4+                1.729e-014  1.500e-014   -13.762   -13.824    -0.062
   Ni(SO4)2-2            4.771e-015  2.703e-015   -14.321   -14.568    -0.247
   Al(SO4)2-             4.283e-016  3.716e-016   -15.368   -15.430    -0.062
   FeHSO4+               2.008e-016  1.742e-016   -15.697   -15.759    -0.062
   FeSO4+                1.011e-016  8.775e-017   -15.995   -16.057    -0.062
   Fe(SO4)2-             1.733e-018  1.504e-018   -17.761   -17.823    -0.062
   AlHSO4+2              4.175e-023  2.365e-023   -22.379   -22.626    -0.247
   FeHSO4+2              7.376e-024  4.179e-024   -23.132   -23.379    -0.247
Sr              1.900e-005
   Sr+2                  1.591e-005  9.254e-006    -4.798    -5.034    -0.235
   SrHCO3+               1.542e-006  1.346e-006    -5.812    -5.871    -0.059
   SrSO4                 1.406e-006  1.413e-006    -5.852    -5.850     0.002
   SrCO3                 1.481e-007  1.481e-007    -6.829    -6.829     0.000
   SrOH+                 3.063e-011  2.668e-011   -10.514   -10.574    -0.060
Zn              4.595e-008
   ZnCO3                 1.739e-008  1.747e-008    -7.760    -7.758     0.002
   Zn(CO3)2-2            1.653e-008  9.365e-009    -7.782    -8.028    -0.247
   Zn+2                  6.166e-009  3.493e-009    -8.210    -8.457    -0.247
   ZnHCO3+               4.818e-009  4.180e-009    -8.317    -8.379    -0.062
   ZnSO4                 6.382e-010  6.414e-010    -9.195    -9.193     0.002
   ZnOH+                 2.481e-010  2.153e-010    -9.605    -9.667    -0.062
   Zn(OH)2               1.383e-010  1.389e-010    -9.859    -9.857     0.002
   Zn(SO4)2-2            7.209e-012  4.084e-012   -11.142   -11.389    -0.247
   ZnCl+                 5.156e-012  4.473e-012   -11.288   -11.349    -0.062
   ZnF+                  4.930e-012  4.277e-012   -11.307   -11.369    -0.062
   ZnOHCl                3.078e-012  3.094e-012   -11.512   -11.510     0.002
   Zn(OH)3-              2.847e-014  2.470e-014   -13.546   -13.607    -0.062
   ZnCl2                 2.218e-015  2.229e-015   -14.654   -14.652     0.002
   ZnCl3-                1.372e-018  1.190e-018   -17.863   -17.924    -0.062
   Zn(OH)4-2             3.884e-019  2.200e-019   -18.411   -18.658    -0.247
   ZnCl4-2               5.010e-022  2.838e-022   -21.300   -21.547    -0.247

------------------------------Saturation indices-------------------------------

	Phase               SI log IAP  log KT

	Al(OH)3(a)       -1.77    9.03   10.80  Al(OH)3
	AlumK           -19.47  -24.64   -5.17  KAl(SO4)2:12H2O
	Alunite          -5.18   -6.58   -1.40  KAl3(SO4)2(OH)6
	Anhydrite        -1.47   -5.83   -4.36  CaSO4
	Antlerite       -10.80   -2.51    8.29  Cu3(OH)4SO4
	Aragonite         1.01   -7.33   -8.34  CaCO3
	Artinite         -4.43    5.17    9.60  MgCO3:Mg(OH)2:3H2O
	Atacamite        -7.68   -0.34    7.34  Cu2(OH)3Cl
	Azurite          -7.20   -3.45    3.75  Cu3(OH)2(CO3)2
	BaF2             -9.16  -14.92   -5.76  BaF2
	Barite            0.07   -9.90   -9.97  BaSO4
	Basaluminite     -5.18   17.52   22.70  Al4(OH)10SO4
	Bianchite        -9.80  -11.56   -1.76  ZnSO4:6H2O
	Birnessite      -10.97   32.63   43.60  MnO2
	Bixbyite         -8.64   -9.25   -0.61  Mn2O3
	Boehmite          0.45    9.03    8.58  AlOOH
	Brochantite     -12.49    2.85   15.34  Cu4(OH)6SO4
	Brucite          -4.21   12.63   16.84  Mg(OH)2
	Bunsenite        -6.33    6.12   12.45  NiO
	Calcite           1.15   -7.33   -8.48  CaCO3
	Celestite        -1.51   -8.14   -6.63  SrSO4
	Chalcanthite    -10.60  -13.24   -2.64  CuSO4:5H2O
	CO2(g)           -1.95   -3.42   -1.47  CO2
	Cu(OH)2          -3.28    5.36    8.64  Cu(OH)2
	Cu2(OH)3NO3     -12.22   -2.98    9.24  Cu2(OH)3NO3
	Cu2SO4          -23.99  -25.94   -1.95  Cu2SO4
	Cu3(PO4)2       -13.55  -50.40  -36.85  Cu3(PO4)2
	Cu3(PO4)2:3H2O  -15.28  -50.40  -35.12  Cu3(PO4)2:3H2O
	CuCO3            -5.11  -14.74   -9.63  CuCO3
	CuF             -22.56  -15.48    7.08  CuF
	CuF2            -17.64  -18.26   -0.62  CuF2
	CuF2:2H2O       -13.71  -18.26   -4.55  CuF2:2H2O
	CuMetal          -6.66  -15.42   -8.76  Cu
	CuOCuSO4        -19.41   -7.88   11.53  CuO:CuSO4
	CupricFerrite    12.00   17.88    5.88  CuFe2O4
	Cuprite          -5.78   -7.33   -1.55  Cu2O
	CuprousFerrite   11.51    2.59   -8.92  CuFeO2
	CuSO4           -16.25  -13.24    3.01  CuSO4
	Diaspore          2.15    9.03    6.88  AlOOH
	Dolomite          2.30  -14.79  -17.09  CaMg(CO3)2
	Dolomite(d)       1.75  -14.79  -16.54  CaMg(CO3)2
	Epsomite         -3.83   -5.97   -2.14  MgSO4:7H2O
	FCO3Apatite      24.05  -90.35 -114.40  Ca9.316Na0.36Mg0.144(PO4)4.8(CO3)1.2F2.48
	Fe(OH)2.7Cl.3     5.98    2.94   -3.04  Fe(OH)2.7Cl0.3
	Fe(OH)3(a)        1.37    6.26    4.89  Fe(OH)3
	Fe3(OH)8         -0.18   20.05   20.22  Fe3(OH)8
	Fluorapatite      6.95  -10.65  -17.60  Ca5(PO4)3F
	Fluorite         -0.25  -10.85  -10.60  CaF2
	Gibbsite          0.92    9.03    8.11  Al(OH)3
	Goethite          7.26    6.26   -1.00  FeOOH
	Goslarite        -9.60  -11.56   -1.96  ZnSO4:7H2O
	Gypsum           -1.25   -5.83   -4.58  CaSO4:2H2O
	H2(g)           -23.50  -26.65   -3.15  H2
	H2O(g)           -1.51   -0.00    1.51  H2O
	Halite           -7.53   -5.95    1.58  NaCl
	Hausmannite     -10.13   50.90   61.03  Mn3O4
	Hematite         16.53   12.52   -4.01  Fe2O3
	Huntite           0.24  -29.73  -29.97  CaMg3(CO3)4
	Hydromagnesite   -8.47  -17.24   -8.76  Mg5(CO3)4(OH)2:4H2O
	Hydroxyapatite    4.58    1.16   -3.42  Ca5(PO4)3OH
	Jarosite(ss)     -5.73  -15.56   -9.83  (K0.77Na0.03H0.2)Fe3(SO4)2(OH)6
	Jarosite-K       -5.69  -14.90   -9.21  KFe3(SO4)2(OH)6
	Jarosite-Na      -8.03  -13.31   -5.28  NaFe3(SO4)2(OH)6
	JarositeH       -13.05  -18.44   -5.39  (H3O)Fe3(SO4)2(OH)6
	Jurbanite        -6.34   -9.57   -3.23  AlOHSO4
	Langite         -13.94    2.85   16.79  Cu4(OH)6SO4:H2O
	Maghemite         6.13   12.52    6.39  Fe2O3
	Magnesite         0.56   -7.47   -8.03  MgCO3
	Magnetite        16.31   20.05    3.74  Fe3O4
	Malachite        -4.19    0.96    5.15  Cu2(OH)2CO3
	Manganite        -4.46   20.88   25.34  MnOOH
	Melanothallite  -20.51  -16.78    3.73  CuCl2
	Melanterite      -8.87  -11.08   -2.21  FeSO4:7H2O
	Mirabilite       -7.24   -8.36   -1.11  Na2SO4:10H2O
	Mn2(SO4)3       -59.36  -65.07   -5.71  Mn2(SO4)3
	Mn3(PO4)2       -15.27  -39.09  -23.83  Mn3(PO4)2
	MnCl2:4H2O      -15.72  -13.01    2.71  MnCl2:4H2O
	MnHPO4            1.18  -11.77  -12.95  MnHPO4
	MnSO4           -12.14   -9.47    2.67  MnSO4
	Morenosite      -10.12  -12.48   -2.36  NiSO4:7H2O
	Nahcolite        -4.10   -4.65   -0.55  NaHCO3
	Nantokite        -7.98  -14.74   -6.76  CuCl
	Natron           -8.54   -9.85   -1.31  Na2CO3:10H2O
	Nesquehonite     -1.85   -7.47   -5.62  MgCO3:3H2O
	Ni(OH)2          -4.68    6.12   10.80  Ni(OH)2
	Ni3(PO4)2       -16.82  -48.12  -31.30  Ni3(PO4)2
	Ni4(OH)6SO4     -26.11    5.89   32.00  Ni4(OH)6SO4
	NiCO3            -7.14  -13.98   -6.84  NiCO3
	Nsutite          -9.93   32.63   42.56  MnO2
	O2(g)           -36.19  -39.08   -2.89  O2
	Portlandite     -10.03   12.77   22.80  Ca(OH)2
	Pyrochroite      -6.07    9.13   15.20  Mn(OH)2
	Pyrolusite       -8.75   32.63   41.38  MnO2
	Retgersite      -10.44  -12.48   -2.04  NiSO4:6H2O
	Rhodochrosite     0.16  -10.97  -11.13  MnCO3
	Rhodochrosite(d)  -0.58  -10.97  -10.39  MnCO3
	Siderite         -1.68  -12.57  -10.89  FeCO3
	Siderite(d)(3)   -2.12  -12.57  -10.45  FeCO3
	Smithsonite      -3.06  -13.06  -10.00  ZnCO3
	SrF2             -4.62  -13.16   -8.54  SrF2
	Strengite        -0.59  -26.99  -26.40  FePO4:2H2O
	Strontianite     -0.36   -9.63   -9.27  SrCO3
	Tenorite         -2.26    5.36    7.62  CuO
	Thenardite       -8.18   -8.35   -0.18  Na2SO4
	Thermonatrite    -9.97   -9.85    0.13  Na2CO3:H2O
	Trona           -13.70  -14.50   -0.80  NaHCO3:Na2CO3:2H2O
	Vivianite        -7.91  -43.91  -36.00  Fe3(PO4)2:8H2O
	Witherite        -2.83  -11.40   -8.56  BaCO3
	Zincite(c)       -4.10    7.04   11.14  ZnO
	Zincosite       -14.57  -11.56    3.01  ZnSO4
	Zn(BO2)2        -10.71   -2.42    8.29  Zn(BO2)2
	Zn(NO3)2:6H2O   -23.82  -20.38    3.44  Zn(NO3)2:6H2O
	Zn(OH)2-a        -5.41    7.04   12.45  Zn(OH)2
	Zn(OH)2-b        -4.71    7.04   11.75  Zn(OH)2
	Zn(OH)2-c        -5.16    7.04   12.20  Zn(OH)2
	Zn(OH)2-e        -4.46    7.04   11.50  Zn(OH)2
	Zn(OH)2-g        -4.67    7.04   11.71  Zn(OH)2
	Zn2(OH)2SO4     -12.02   -4.52    7.50  Zn2(OH)2SO4
	Zn2(OH)3Cl      -12.19    3.01   15.20  Zn2(OH)3Cl
	Zn3(PO4)2:4w    -13.33  -45.37  -32.04  Zn3(PO4)2:4H2O
	Zn3O(SO4)2      -35.10  -16.08   19.02  ZnO:2ZnSO4
	Zn4(OH)6SO4     -18.83    9.57   28.40  Zn4(OH)6SO4
	Zn5(OH)8Cl2     -25.43   13.07   38.50  Zn5(OH)8Cl2
	ZnCl2           -22.13  -15.10    7.03  ZnCl2
	ZnCO3:H2O        -2.80  -13.06  -10.26  ZnCO3:H2O
	ZnF2            -15.06  -16.58   -1.52  ZnF2
	ZnMetal         -42.21  -16.46   25.76  Zn
	ZnO(a)           -4.27    7.04   11.31  ZnO
	ZnSO4:H2O       -10.99  -11.56   -0.57  ZnSO4:H2O

-------------------------------------------------------
Beginning of initial exchange-composition calculations.
-------------------------------------------------------

Exchange 1.	

X               1.000e+000 mol

	                               Equiv-    Equivalent      Log 
	Species             Moles      alents      Fraction     Gamma

	CaX2             3.345e-001  6.690e-001  6.690e-001     0.000
	MgX2             1.532e-001  3.064e-001  3.064e-001     0.000
	NaX              1.787e-002  1.787e-002  1.787e-002     0.000
	KX               2.322e-003  2.322e-003  2.322e-003     0.000
	SrX2             2.127e-003  4.254e-003  4.254e-003     0.000
	MnX2             4.032e-005  8.064e-005  8.064e-005     0.000
	BaX2             3.684e-005  7.368e-005  7.368e-005     0.000
	HX               1.337e-006  1.337e-006  1.337e-006     0.000
	FeX2             8.332e-007  1.666e-006  1.666e-006     0.000
	ZnX2             6.231e-007  1.246e-006  1.246e-006     0.000
	CuX2             8.237e-009  1.647e-008  1.647e-008     0.000
	AlX3             4.015e-012  1.205e-011  1.205e-011     0.000

------------------------------------------------------
Beginning of initial surface-composition calculations.
------------------------------------------------------

Surface 1.	

Hfo           
	-5.541e-002  Surface charge, eq
Hfo_w         
	 1.000e+000  moles
	                                   Mole                     Log
	Species               Moles    Fraction    Molality    Molality

	Hfo_wOMg+        3.662e-001       0.366  3.662e-001      -0.436
	Hfo_wOH          1.905e-001       0.190  1.905e-001      -0.720
	Hfo_wPO4-2       1.786e-001       0.179  1.786e-001      -0.748
	Hfo_wHPO4-       1.486e-001       0.149  1.486e-001      -0.828
	Hfo_wOH2+        6.605e-002       0.066  6.605e-002      -1.180
	Hfo_wOCa+        2.837e-002       0.028  2.837e-002      -1.547
	Hfo_wO-          1.258e-002       0.013  1.258e-002      -1.900
	Hfo_wOCu+        3.120e-003       0.003  3.120e-003      -2.506
	Hfo_wH2PO4       2.099e-003       0.002  2.099e-003      -2.678
	Hfo_wOMn+        1.459e-003       0.001  1.459e-003      -2.836
	Hfo_wOHSO4-2     9.200e-004       0.001  9.200e-004      -3.036
	Hfo_wOHF-        6.574e-004       0.001  6.574e-004      -3.182
	Hfo_wOZn+        3.828e-004       0.000  3.828e-004      -3.417
	Hfo_wSO4-        1.599e-004       0.000  1.599e-004      -3.796
	Hfo_wF           1.472e-004       0.000  1.472e-004      -3.832
	Hfo_wOFe+        1.200e-004       0.000  1.200e-004      -3.921
	Hfo_wOSr+        2.607e-005       0.000  2.607e-005      -4.584
	Hfo_wOFeOH       1.816e-005       0.000  1.816e-005      -4.741
	Hfo_wH2BO3       1.468e-005       0.000  1.468e-005      -4.833
	Hfo_wONi+        1.425e-005       0.000  1.425e-005      -4.846
	Hfo_wOBa+        1.083e-007       0.000  1.083e-007      -6.965
	Hfo_wOSrOH       1.400e-008       0.000  1.400e-008      -7.854

-----------------------------------------
Beginning of batch-reaction calculations.
-----------------------------------------

Reaction step 1.

Using solution 1.	Ambient Groundwater--Active aquitard
Using exchange 1.	Exchange assemblage after simulation 1.

-----------------------------Exchange composition------------------------------

X               1.000e+000 mol

	                               Equiv-    Equivalent      Log 
	Species             Moles      alents      Fraction     Gamma

	CaX2             3.345e-001  6.690e-001  6.690e-001     0.000
	MgX2             1.532e-001  3.064e-001  3.064e-001     0.000
	NaX              1.787e-002  1.787e-002  1.787e-002     0.000
	KX               2.322e-003  2.322e-003  2.322e-003     0.000
	SrX2             2.127e-003  4.254e-003  4.254e-003     0.000
	MnX2             4.032e-005  8.064e-005  8.064e-005     0.000
	BaX2             3.684e-005  7.369e-005  7.369e-005     0.000
	HX               1.341e-006  1.341e-006  1.341e-006     0.000
	ZnX2             6.233e-007  1.247e-006  1.247e-006     0.000
	CuX2             8.259e-009  1.652e-008  1.652e-008     0.000
	AlX3             4.060e-012  1.218e-011  1.218e-011     0.000
	FeX2             2.519e-013  5.039e-013  5.039e-013     0.000
	NH4X             5.746e-051  5.746e-051  5.746e-051     0.000

-----------------------------Solution composition------------------------------

	Elements           Molality       Moles

	Al               1.521e-006  1.521e-006
	B                1.908e-005  1.908e-005
	Ba               3.645e-007  3.645e-007
	C                1.188e-002  1.188e-002
	Ca               3.871e-003  3.871e-003
	Cl               5.507e-004  5.507e-004
	Cu               1.573e-008  1.573e-008
	F                1.107e-004  1.107e-004
	Fe               1.479e-006  1.479e-006
	K                7.169e-005  7.169e-005
	Mg               2.788e-003  2.788e-003
	Mn               2.093e-006  2.093e-006
	N                1.259e-006  1.259e-006
	Na               2.759e-003  2.759e-003
	Ni               8.527e-008  8.527e-008
	P                1.771e-005  1.771e-005
	S                1.918e-003  1.918e-003
	Sr               1.900e-005  1.900e-005
	Zn               4.581e-008  4.581e-008

----------------------------Description of solution----------------------------

                                       pH  =   7.749      Charge balance
                                       pe  =  10.910      Adjusted to redox equilibrium
                        Activity of water  =   1.000
                           Ionic strength  =  2.138e-002
                       Mass of water (kg)  =  1.000e+000
                 Total alkalinity (eq/kg)  =  1.168e-002
                       Total CO2 (mol/kg)  =  1.188e-002
                      Temperature (deg C)  =  25.000
                  Electrical balance (eq)  =  1.918e-016
 Percent error, 100*(Cat-|An|)/(Cat+|An|)  =   0.00
                               Iterations  =  14
                                  Total H  = 1.110239e+002
                                  Total O  = 5.554929e+001

----------------------------Distribution of species----------------------------

                                                   Log       Log         Log 
   Species                 Molality    Activity  Molality  Activity     Gamma

   OH-                   6.468e-007  5.612e-007    -6.189    -6.251    -0.062
   H+                    2.010e-008  1.783e-008    -7.697    -7.749    -0.052
   H2O                   5.551e+001  9.996e-001     1.744    -0.000     0.000
Al              1.521e-006
   Al(OH)4-              1.507e-006  1.307e-006    -5.822    -5.884    -0.062
   Al(OH)3               1.231e-008  1.237e-008    -7.910    -7.908     0.002
   Al(OH)2+              1.727e-009  1.498e-009    -8.763    -8.824    -0.062
   AlF2+                 2.659e-010  2.307e-010    -9.575    -9.637    -0.062
   AlF3                  2.505e-010  2.517e-010    -9.601    -9.599     0.002
   AlF4-                 1.001e-011  8.688e-012   -10.999   -11.061    -0.062
   AlF+2                 9.370e-012  5.308e-012   -11.028   -11.275    -0.247
   AlOH+2                6.018e-012  3.410e-012   -11.221   -11.467    -0.247
   Al+3                  2.199e-014  6.123e-015   -13.658   -14.213    -0.555
   AlSO4+                1.748e-014  1.517e-014   -13.757   -13.819    -0.062
   Al(SO4)2-             4.331e-016  3.757e-016   -15.363   -15.425    -0.062
   AlHSO4+2              4.233e-023  2.398e-023   -22.373   -22.620    -0.247
B               1.908e-005
   H3BO3                 1.839e-005  1.848e-005    -4.735    -4.733     0.002
   H2BO3-                6.874e-007  5.964e-007    -6.163    -6.224    -0.062
   BF(OH)3-              7.352e-010  6.379e-010    -9.134    -9.195    -0.062
   BF2(OH)2-             1.218e-013  1.057e-013   -12.914   -12.976    -0.062
   BF3OH-                2.066e-019  1.792e-019   -18.685   -18.747    -0.062
   BF4-                  1.302e-024  1.129e-024   -23.885   -23.947    -0.062
Ba              3.645e-007
   Ba+2                  2.829e-007  1.603e-007    -6.548    -6.795    -0.247
   BaSO4                 6.262e-008  6.293e-008    -7.203    -7.201     0.002
   BaHCO3+               1.684e-008  1.461e-008    -7.774    -7.835    -0.062
   BaCO3                 2.060e-009  2.070e-009    -8.686    -8.684     0.002
   BaOH+                 3.509e-013  3.045e-013   -12.455   -12.516    -0.062
C(-4)           0.000e+000
   CH4                   0.000e+000  0.000e+000  -128.301  -128.299     0.002
C(4)            1.188e-002
   HCO3-                 1.089e-002  9.506e-003    -1.963    -2.022    -0.059
   CO2                   3.794e-004  3.813e-004    -3.421    -3.419     0.002
   CaHCO3+               2.620e-004  2.273e-004    -3.582    -3.643    -0.062
   MgHCO3+               1.745e-004  1.514e-004    -3.758    -3.820    -0.062
   CaCO3                 7.814e-005  7.853e-005    -4.107    -4.105     0.002
   CO3-2                 4.310e-005  2.500e-005    -4.366    -4.602    -0.237
   MgCO3                 3.231e-005  3.247e-005    -4.491    -4.489     0.002
   NaHCO3                1.264e-005  1.270e-005    -4.898    -4.896     0.002
   SrHCO3+               1.542e-006  1.346e-006    -5.812    -5.871    -0.059
   NaCO3-                1.275e-006  1.106e-006    -5.894    -5.956    -0.062
   MnCO3                 8.510e-007  8.552e-007    -6.070    -6.068     0.002
   MnHCO3+               4.205e-007  3.648e-007    -6.376    -6.438    -0.062
   SrCO3                 1.477e-007  1.477e-007    -6.831    -6.831     0.000
   NiCO3                 7.782e-008  7.820e-008    -7.109    -7.107     0.002
   ZnCO3                 1.734e-008  1.743e-008    -7.761    -7.759     0.002
   BaHCO3+               1.684e-008  1.461e-008    -7.774    -7.835    -0.062
   Zn(CO3)2-2            1.644e-008  9.314e-009    -7.784    -8.031    -0.247
   CuCO3                 9.802e-009  9.850e-009    -8.009    -8.007     0.002
   Ni(CO3)2-2            5.997e-009  3.398e-009    -8.222    -8.469    -0.247
   ZnHCO3+               4.819e-009  4.181e-009    -8.317    -8.379    -0.062
   BaCO3                 2.060e-009  2.070e-009    -8.686    -8.684     0.002
   NiHCO3+               6.382e-010  5.537e-010    -9.195    -9.257    -0.062
   Cu(CO3)2-2            5.472e-010  3.100e-010    -9.262    -9.509    -0.247
   CuHCO3+               4.029e-010  3.495e-010    -9.395    -9.457    -0.062
   FeHCO3+               3.544e-015  3.075e-015   -14.450   -14.512    -0.062
   FeCO3                 1.930e-015  1.940e-015   -14.714   -14.712     0.002
Ca              3.871e-003
   Ca+2                  3.233e-003  1.875e-003    -2.490    -2.727    -0.237
   CaSO4                 2.916e-004  2.930e-004    -3.535    -3.533     0.002
   CaHCO3+               2.620e-004  2.273e-004    -3.582    -3.643    -0.062
   CaCO3                 7.814e-005  7.853e-005    -4.107    -4.105     0.002
   CaHPO4                4.053e-006  4.073e-006    -5.392    -5.390     0.002
   CaF+                  1.632e-006  1.416e-006    -5.787    -5.849    -0.062
   CaPO4-                6.229e-007  5.404e-007    -6.206    -6.267    -0.062
   CaH2PO4+              6.293e-008  5.459e-008    -7.201    -7.263    -0.062
   CaOH+                 2.010e-008  1.744e-008    -7.697    -7.758    -0.062
   CaHSO4+               3.528e-011  3.061e-011   -10.452   -10.514    -0.062
Cl              5.507e-004
   Cl-                   5.507e-004  4.758e-004    -3.259    -3.323    -0.063
   MnCl+                 9.622e-010  8.348e-010    -9.017    -9.078    -0.062
   ZnCl+                 5.157e-012  4.474e-012   -11.288   -11.349    -0.062
   ZnOHCl                3.070e-012  3.086e-012   -11.513   -11.511     0.002
   NiCl+                 5.813e-013  5.043e-013   -12.236   -12.297    -0.062
   MnCl2                 1.725e-013  1.734e-013   -12.763   -12.761     0.002
   CuCl+                 1.083e-013  9.396e-014   -12.965   -13.027    -0.062
   ZnCl2                 2.218e-015  2.229e-015   -14.654   -14.652     0.002
   NiCl2                 8.671e-016  8.713e-016   -15.062   -15.060     0.002
   MnCl3-                2.619e-017  2.272e-017   -16.582   -16.643    -0.062
   CuCl2                 2.389e-017  2.401e-017   -16.622   -16.620     0.002
   FeCl+                 2.449e-018  2.125e-018   -17.611   -17.673    -0.062
   ZnCl3-                1.372e-018  1.190e-018   -17.863   -17.924    -0.062
   FeCl+2                6.370e-019  3.608e-019   -18.196   -18.443    -0.247
   CuCl2-                3.909e-020  3.392e-020   -19.408   -19.470    -0.062
   FeCl2+                8.841e-022  7.670e-022   -21.054   -21.115    -0.062
   ZnCl4-2               5.011e-022  2.839e-022   -21.300   -21.547    -0.247
   CuCl3-                4.673e-023  4.054e-023   -22.330   -22.392    -0.062
   CuCl3-2               4.515e-023  2.558e-023   -22.345   -22.592    -0.247
   FeCl3                 3.632e-026  3.650e-026   -25.440   -25.438     0.002
   CuCl4-2               1.707e-028  9.668e-029   -27.768   -28.015    -0.247
Cu(1)           5.851e-019
   Cu+                   5.460e-019  4.737e-019   -18.263   -18.325    -0.062
   CuCl2-                3.909e-020  3.392e-020   -19.408   -19.470    -0.062
   CuCl3-2               4.515e-023  2.558e-023   -22.345   -22.592    -0.247
Cu(2)           1.573e-008
   CuCO3                 9.802e-009  9.850e-009    -8.009    -8.007     0.002
   Cu(OH)2               4.793e-009  4.817e-009    -8.319    -8.317     0.002
   Cu(CO3)2-2            5.472e-010  3.100e-010    -9.262    -9.509    -0.247
   CuHCO3+               4.029e-010  3.495e-010    -9.395    -9.457    -0.062
   Cu+2                  1.295e-010  7.336e-011    -9.888   -10.135    -0.247
   CuOH+                 4.740e-011  4.113e-011   -10.324   -10.386    -0.062
   CuSO4                 1.168e-011  1.173e-011   -10.933   -10.931     0.002
   CuF+                  1.334e-013  1.157e-013   -12.875   -12.937    -0.062
   CuCl+                 1.083e-013  9.396e-014   -12.965   -13.027    -0.062
   Cu(OH)3-              1.875e-014  1.627e-014   -13.727   -13.789    -0.062
   Cu2(OH)2+2            1.306e-015  7.401e-016   -14.884   -15.131    -0.247
   CuCl2                 2.389e-017  2.401e-017   -16.622   -16.620     0.002
   Cu(OH)4-2             3.212e-019  1.820e-019   -18.493   -18.740    -0.247
   CuCl3-                4.673e-023  4.054e-023   -22.330   -22.392    -0.062
   CuCl4-2               1.707e-028  9.668e-029   -27.768   -28.015    -0.247
   Cu(HS)3-              0.000e+000  0.000e+000  -363.440  -363.502    -0.062
F               1.107e-004
   F-                    9.993e-005  8.669e-005    -4.000    -4.062    -0.062
   MgF+                  8.984e-006  7.795e-006    -5.047    -5.108    -0.062
   CaF+                  1.632e-006  1.416e-006    -5.787    -5.849    -0.062
   NaF                   1.180e-007  1.186e-007    -6.928    -6.926     0.002
   HF                    2.307e-009  2.318e-009    -8.637    -8.635     0.002
   BF(OH)3-              7.352e-010  6.379e-010    -9.134    -9.195    -0.062
   MnF+                  2.977e-010  2.583e-010    -9.526    -9.588    -0.062
   AlF2+                 2.659e-010  2.307e-010    -9.575    -9.637    -0.062
   AlF3                  2.505e-010  2.517e-010    -9.601    -9.599     0.002
   AlF4-                 1.001e-011  8.688e-012   -10.999   -11.061    -0.062
   AlF+2                 9.370e-012  5.308e-012   -11.028   -11.275    -0.247
   ZnF+                  4.931e-012  4.278e-012   -11.307   -11.369    -0.062
   HF2-                  8.889e-013  7.712e-013   -12.051   -12.113    -0.062
   NiF+                  8.413e-013  7.299e-013   -12.075   -12.137    -0.062
   CuF+                  1.334e-013  1.157e-013   -12.875   -12.937    -0.062
   BF2(OH)2-             1.218e-013  1.057e-013   -12.914   -12.976    -0.062
   FeF2+                 1.373e-014  1.191e-014   -13.862   -13.924    -0.062
   FeF+2                 6.090e-015  3.450e-015   -14.215   -14.462    -0.247
   FeF3                  1.628e-015  1.636e-015   -14.788   -14.786     0.002
   H2F2                  1.394e-017  1.401e-017   -16.856   -16.854     0.002
   FeF+                  3.232e-018  2.804e-018   -17.490   -17.552    -0.062
   BF3OH-                2.066e-019  1.792e-019   -18.685   -18.747    -0.062
   BF4-                  1.302e-024  1.129e-024   -23.885   -23.947    -0.062
Fe(2)           1.176e-014
   Fe+2                  5.710e-015  3.235e-015   -14.243   -14.490    -0.247
   FeHCO3+               3.544e-015  3.075e-015   -14.450   -14.512    -0.062
   FeCO3                 1.930e-015  1.940e-015   -14.714   -14.712     0.002
   FeSO4                 4.484e-016  4.506e-016   -15.348   -15.346     0.002
   FeOH+                 6.609e-017  5.734e-017   -16.180   -16.242    -0.062
   FeHPO4                5.078e-017  5.103e-017   -16.294   -16.292     0.002
   FeF+                  3.232e-018  2.804e-018   -17.490   -17.552    -0.062
   FeCl+                 2.449e-018  2.125e-018   -17.611   -17.673    -0.062
   FeH2PO4+              2.127e-018  1.845e-018   -17.672   -17.734    -0.062
   Fe(OH)2               2.722e-020  2.736e-020   -19.565   -19.563     0.002
   Fe(OH)3-              6.568e-023  5.698e-023   -22.183   -22.244    -0.062
   FeHSO4+               6.088e-023  5.282e-023   -22.216   -22.277    -0.062
   Fe(HS)2               0.000e+000  0.000e+000  -258.387  -258.385     0.002
   Fe(HS)3-              0.000e+000  0.000e+000  -382.709  -382.770    -0.062
Fe(3)           1.479e-006
   Fe(OH)3               1.212e-006  1.218e-006    -5.916    -5.914     0.002
   Fe(OH)2+              1.945e-007  1.687e-007    -6.711    -6.773    -0.062
   Fe(OH)4-              7.179e-008  6.228e-008    -7.144    -7.206    -0.062
   FeOH+2                1.604e-011  9.088e-012   -10.795   -11.042    -0.247
   FeF2+                 1.373e-014  1.191e-014   -13.862   -13.924    -0.062
   FeF+2                 6.090e-015  3.450e-015   -14.215   -14.462    -0.247
   FeF3                  1.628e-015  1.636e-015   -14.788   -14.786     0.002
   FeSO4+                2.486e-016  2.157e-016   -15.604   -15.666    -0.062
   Fe+3                  9.018e-017  2.511e-017   -16.045   -16.600    -0.555
   FeHPO4+               3.087e-017  2.678e-017   -16.510   -16.572    -0.062
   FeH2PO4+2             1.358e-017  7.692e-018   -16.867   -17.114    -0.247
   Fe(SO4)2-             4.260e-018  3.696e-018   -17.371   -17.432    -0.062
   FeCl+2                6.370e-019  3.608e-019   -18.196   -18.443    -0.247
   Fe2(OH)2+4            2.158e-020  2.223e-021   -19.666   -20.653    -0.987
   FeCl2+                8.841e-022  7.670e-022   -21.054   -21.115    -0.062
   FeHSO4+2              1.818e-023  1.030e-023   -22.740   -22.987    -0.247
   Fe3(OH)4+5            2.732e-024  7.836e-026   -23.563   -25.106    -1.542
   FeCl3                 3.632e-026  3.650e-026   -25.440   -25.438     0.002
H(0)            0.000e+000
   H2                    0.000e+000  0.000e+000   -40.470   -40.468     0.002
K               7.169e-005
   K+                    7.130e-005  6.161e-005    -4.147    -4.210    -0.063
   KSO4-                 3.909e-007  3.391e-007    -6.408    -6.470    -0.062
   KHPO4-                5.487e-010  4.760e-010    -9.261    -9.322    -0.062
Mg              2.788e-003
   Mg+2                  2.318e-003  1.361e-003    -2.635    -2.866    -0.231
   MgSO4                 2.487e-004  2.499e-004    -3.604    -3.602     0.002
   MgHCO3+               1.745e-004  1.514e-004    -3.758    -3.820    -0.062
   MgCO3                 3.231e-005  3.247e-005    -4.491    -4.489     0.002
   MgF+                  8.984e-006  7.795e-006    -5.047    -5.108    -0.062
   MgHPO4                3.978e-006  3.997e-006    -5.400    -5.398     0.002
   MgPO4-                6.099e-007  5.291e-007    -6.215    -6.276    -0.062
   MgOH+                 3.192e-007  2.770e-007    -6.496    -6.558    -0.062
   MgH2PO4+              5.817e-008  5.046e-008    -7.235    -7.297    -0.062
Mn(2)           2.093e-006
   MnCO3                 8.510e-007  8.552e-007    -6.070    -6.068     0.002
   Mn+2                  7.601e-007  4.306e-007    -6.119    -6.366    -0.247
   MnHCO3+               4.205e-007  3.648e-007    -6.376    -6.438    -0.062
   MnSO4                 5.969e-008  5.999e-008    -7.224    -7.222     0.002
   MnCl+                 9.622e-010  8.348e-010    -9.017    -9.078    -0.062
   MnOH+                 7.152e-010  6.205e-010    -9.146    -9.207    -0.062
   MnF+                  2.977e-010  2.583e-010    -9.526    -9.588    -0.062
   MnCl2                 1.725e-013  1.734e-013   -12.763   -12.761     0.002
   MnCl3-                2.619e-017  2.272e-017   -16.582   -16.643    -0.062
   Mn(NO3)2              1.512e-018  1.519e-018   -17.821   -17.818     0.002
   Mn(OH)3-              1.386e-018  1.202e-018   -17.858   -17.920    -0.062
Mn(3)           3.885e-021
   Mn+3                  3.885e-021  1.082e-021   -20.411   -20.966    -0.555
Mn(6)           1.177e-019
   MnO4-2                1.177e-019  6.667e-020   -18.929   -19.176    -0.247
Mn(7)           2.580e-018
   MnO4-                 2.580e-018  2.238e-018   -17.588   -17.650    -0.062
N(-3)           0.000e+000
   NH4+                  0.000e+000  0.000e+000   -51.655   -51.717    -0.062
   NH3                   0.000e+000  0.000e+000   -53.214   -53.212     0.002
   NH4SO4-               0.000e+000  0.000e+000   -53.651   -53.713    -0.062
N(0)            1.744e-007
   N2                    8.721e-008  8.764e-008    -7.059    -7.057     0.002
N(3)            1.941e-015
   NO2-                  1.941e-015  1.684e-015   -14.712   -14.774    -0.062
N(5)            1.085e-006
   NO3-                  1.085e-006  9.413e-007    -5.965    -6.026    -0.062
   Mn(NO3)2              1.512e-018  1.519e-018   -17.821   -17.818     0.002
Na              2.759e-003
   Na+                   2.734e-003  2.376e-003    -2.563    -2.624    -0.061
   NaHCO3                1.264e-005  1.270e-005    -4.898    -4.896     0.002
   NaSO4-                1.075e-005  9.330e-006    -4.968    -5.030    -0.062
   NaCO3-                1.275e-006  1.106e-006    -5.894    -5.956    -0.062
   NaF                   1.180e-007  1.186e-007    -6.928    -6.926     0.002
   NaHPO4-               2.116e-008  1.836e-008    -7.674    -7.736    -0.062
Ni              8.527e-008
   NiCO3                 7.782e-008  7.820e-008    -7.109    -7.107     0.002
   Ni(CO3)2-2            5.997e-009  3.398e-009    -8.222    -8.469    -0.247
   Ni+2                  7.448e-010  4.219e-010    -9.128    -9.375    -0.247
   NiHCO3+               6.382e-010  5.537e-010    -9.195    -9.257    -0.062
   NiSO4                 6.413e-011  6.445e-011   -10.193   -10.191     0.002
   NiOH+                 3.763e-012  3.265e-012   -11.424   -11.486    -0.062
   NiF+                  8.413e-013  7.299e-013   -12.075   -12.137    -0.062
   NiCl+                 5.813e-013  5.043e-013   -12.236   -12.297    -0.062
   Ni(OH)2               1.319e-013  1.326e-013   -12.880   -12.877     0.002
   Ni(SO4)2-2            4.786e-015  2.711e-015   -14.320   -14.567    -0.247
   NiCl2                 8.671e-016  8.713e-016   -15.062   -15.060     0.002
   Ni(OH)3-              8.567e-017  7.433e-017   -16.067   -16.129    -0.062
O(0)            7.142e-012
   O2                    3.571e-012  3.589e-012   -11.447   -11.445     0.002
P               1.771e-005
   HPO4-2                6.995e-006  3.963e-006    -5.155    -5.402    -0.247
   CaHPO4                4.053e-006  4.073e-006    -5.392    -5.390     0.002
   MgHPO4                3.978e-006  3.997e-006    -5.400    -5.398     0.002
   H2PO4-                1.312e-006  1.138e-006    -5.882    -5.944    -0.062
   CaPO4-                6.229e-007  5.404e-007    -6.206    -6.267    -0.062
   MgPO4-                6.099e-007  5.291e-007    -6.215    -6.276    -0.062
   CaH2PO4+              6.293e-008  5.459e-008    -7.201    -7.263    -0.062
   MgH2PO4+              5.817e-008  5.046e-008    -7.235    -7.297    -0.062
   NaHPO4-               2.116e-008  1.836e-008    -7.674    -7.736    -0.062
   KHPO4-                5.487e-010  4.760e-010    -9.261    -9.322    -0.062
   PO4-3                 3.598e-010  1.002e-010    -9.444    -9.999    -0.555
   FeHPO4                5.078e-017  5.103e-017   -16.294   -16.292     0.002
   FeHPO4+               3.087e-017  2.678e-017   -16.510   -16.572    -0.062
   FeH2PO4+2             1.358e-017  7.692e-018   -16.867   -17.114    -0.247
   FeH2PO4+              2.127e-018  1.845e-018   -17.672   -17.734    -0.062
S(-2)           0.000e+000
   HS-                   0.000e+000  0.000e+000  -126.361  -126.422    -0.062
   H2S                   0.000e+000  0.000e+000  -127.232  -127.230     0.002
   S5-2                  0.000e+000  0.000e+000  -128.080  -128.269    -0.189
   S4-2                  0.000e+000  0.000e+000  -128.301  -128.503    -0.201
   S6-2                  0.000e+000  0.000e+000  -128.376  -128.555    -0.178
   S-2                   0.000e+000  0.000e+000  -131.345  -131.592    -0.247
   S3-2                  0.000e+000  0.000e+000  -131.740  -131.956    -0.215
   S2-2                  0.000e+000  0.000e+000  -132.975  -133.202    -0.227
   Zn(HS)2               0.000e+000  0.000e+000  -246.364  -246.362     0.002
   Fe(HS)2               0.000e+000  0.000e+000  -258.387  -258.385     0.002
   Cu(HS)3-              0.000e+000  0.000e+000  -363.440  -363.502    -0.062
   Zn(HS)3-              0.000e+000  0.000e+000  -371.562  -371.624    -0.062
   Fe(HS)3-              0.000e+000  0.000e+000  -382.709  -382.770    -0.062
S(6)            1.918e-003
   SO4-2                 1.365e-003  7.833e-004    -2.865    -3.106    -0.241
   CaSO4                 2.916e-004  2.930e-004    -3.535    -3.533     0.002
   MgSO4                 2.487e-004  2.499e-004    -3.604    -3.602     0.002
   NaSO4-                1.075e-005  9.330e-006    -4.968    -5.030    -0.062
   SrSO4                 1.406e-006  1.413e-006    -5.852    -5.850     0.002
   KSO4-                 3.909e-007  3.391e-007    -6.408    -6.470    -0.062
   BaSO4                 6.262e-008  6.293e-008    -7.203    -7.201     0.002
   MnSO4                 5.969e-008  5.999e-008    -7.224    -7.222     0.002
   HSO4-                 1.565e-009  1.358e-009    -8.805    -8.867    -0.062
   ZnSO4                 6.383e-010  6.415e-010    -9.195    -9.193     0.002
   NiSO4                 6.413e-011  6.445e-011   -10.193   -10.191     0.002
   CaHSO4+               3.528e-011  3.061e-011   -10.452   -10.514    -0.062
   CuSO4                 1.168e-011  1.173e-011   -10.933   -10.931     0.002
   Zn(SO4)2-2            7.210e-012  4.085e-012   -11.142   -11.389    -0.247
   AlSO4+                1.748e-014  1.517e-014   -13.757   -13.819    -0.062
   Ni(SO4)2-2            4.786e-015  2.711e-015   -14.320   -14.567    -0.247
   FeSO4                 4.484e-016  4.506e-016   -15.348   -15.346     0.002
   Al(SO4)2-             4.331e-016  3.757e-016   -15.363   -15.425    -0.062
   FeSO4+                2.486e-016  2.157e-016   -15.604   -15.666    -0.062
   Fe(SO4)2-             4.260e-018  3.696e-018   -17.371   -17.432    -0.062
   FeHSO4+               6.088e-023  5.282e-023   -22.216   -22.277    -0.062
   AlHSO4+2              4.233e-023  2.398e-023   -22.373   -22.620    -0.247
   FeHSO4+2              1.818e-023  1.030e-023   -22.740   -22.987    -0.247
   NH4SO4-               0.000e+000  0.000e+000   -53.651   -53.713    -0.062
Sr              1.900e-005
   Sr+2                  1.590e-005  9.253e-006    -4.798    -5.034    -0.235
   SrHCO3+               1.542e-006  1.346e-006    -5.812    -5.871    -0.059
   SrSO4                 1.406e-006  1.413e-006    -5.852    -5.850     0.002
   SrCO3                 1.477e-007  1.477e-007    -6.831    -6.831     0.000
   SrOH+                 3.055e-011  2.660e-011   -10.515   -10.575    -0.060
Zn              4.581e-008
   ZnCO3                 1.734e-008  1.743e-008    -7.761    -7.759     0.002
   Zn(CO3)2-2            1.644e-008  9.314e-009    -7.784    -8.031    -0.247
   Zn+2                  6.166e-009  3.493e-009    -8.210    -8.457    -0.247
   ZnHCO3+               4.819e-009  4.181e-009    -8.317    -8.379    -0.062
   ZnSO4                 6.383e-010  6.415e-010    -9.195    -9.193     0.002
   ZnOH+                 2.475e-010  2.147e-010    -9.606    -9.668    -0.062
   Zn(OH)2               1.375e-010  1.382e-010    -9.862    -9.859     0.002
   Zn(SO4)2-2            7.210e-012  4.085e-012   -11.142   -11.389    -0.247
   ZnCl+                 5.157e-012  4.474e-012   -11.288   -11.349    -0.062
   ZnF+                  4.931e-012  4.278e-012   -11.307   -11.369    -0.062
   ZnOHCl                3.070e-012  3.086e-012   -11.513   -11.511     0.002
   Zn(OH)3-              2.824e-014  2.450e-014   -13.549   -13.611    -0.062
   ZnCl2                 2.218e-015  2.229e-015   -14.654   -14.652     0.002
   ZnCl3-                1.372e-018  1.190e-018   -17.863   -17.924    -0.062
   Zn(OH)4-2             3.842e-019  2.177e-019   -18.415   -18.662    -0.247
   ZnCl4-2               5.011e-022  2.839e-022   -21.300   -21.547    -0.247
   Zn(HS)2               0.000e+000  0.000e+000  -246.364  -246.362     0.002
   Zn(HS)3-              0.000e+000  0.000e+000  -371.562  -371.624    -0.062

------------------------------Saturation indices-------------------------------

	Phase               SI log IAP  log KT

	Al(OH)3(a)       -1.77    9.03   10.80  Al(OH)3
	AlumK           -19.47  -24.64   -5.17  KAl(SO4)2:12H2O
	Alunite          -5.17   -6.57   -1.40  KAl3(SO4)2(OH)6
	Anhydrite        -1.47   -5.83   -4.36  CaSO4
	Anilite        -116.82 -148.69  -31.88  Cu0.25Cu1.5S
	Antlerite       -10.81   -2.52    8.29  Cu3(OH)4SO4
	Aragonite         1.01   -7.33   -8.34  CaCO3
	Artinite         -4.44    5.16    9.60  MgCO3:Mg(OH)2:3H2O
	Atacamite        -7.69   -0.35    7.34  Cu2(OH)3Cl
	Azurite          -7.20   -3.45    3.75  Cu3(OH)2(CO3)2
	BaF2             -9.16  -14.92   -5.76  BaF2
	Barite            0.07   -9.90   -9.97  BaSO4
	Basaluminite     -5.17   17.53   22.70  Al4(OH)10SO4
	Bianchite        -9.80  -11.56   -1.76  ZnSO4:6H2O
	Birnessite        2.85   46.45   43.60  MnO2
	Bixbyite          5.17    4.56   -0.61  Mn2O3
	BlaubleiI      -107.30 -131.46  -24.16  Cu0.9Cu0.2S
	BlaubleiII     -112.13 -139.41  -27.28  Cu0.6Cu0.8S
	Boehmite          0.45    9.03    8.58  AlOOH
	Brochantite     -12.49    2.85   15.34  Cu4(OH)6SO4
	Brucite          -4.21   12.63   16.84  Mg(OH)2
	Bunsenite        -6.33    6.12   12.45  NiO
	Calcite           1.15   -7.33   -8.48  CaCO3
	Celestite        -1.51   -8.14   -6.63  SrSO4
	CH4(g)         -125.44 -128.30   -2.86  CH4
	Chalcanthite    -10.60  -13.24   -2.64  CuSO4:5H2O
	Chalcocite     -120.70 -155.32  -34.62  Cu2S
	Chalcopyrite   -226.70 -261.97  -35.27  CuFeS2
	CO2(g)           -1.95   -3.42   -1.47  CO2
	Covellite      -106.54 -128.81  -22.27  CuS
	Cu(OH)2          -3.28    5.36    8.64  Cu(OH)2
	Cu2(OH)3NO3     -12.29   -3.05    9.24  Cu2(OH)3NO3
	Cu2SO4          -37.81  -39.76   -1.95  Cu2SO4
	Cu3(PO4)2       -13.55  -50.40  -36.85  Cu3(PO4)2
	Cu3(PO4)2:3H2O  -15.28  -50.40  -35.12  Cu3(PO4)2:3H2O
	CuCO3            -5.11  -14.74   -9.63  CuCO3
	CuF             -29.47  -22.39    7.08  CuF
	CuF2            -17.64  -18.26   -0.62  CuF2
	CuF2:2H2O       -13.71  -18.26   -4.55  CuF2:2H2O
	CuMetal         -20.47  -29.23   -8.76  Cu
	CuOCuSO4        -19.41   -7.88   11.53  CuO:CuSO4
	CupricFerrite    12.77   18.65    5.88  CuFe2O4
	Cuprite         -19.60  -21.15   -1.55  Cu2O
	CuprousFerrite    4.99   -3.93   -8.92  CuFeO2
	CuSO4           -16.25  -13.24    3.01  CuSO4
	Diaspore          2.15    9.03    6.88  AlOOH
	Djurleite      -119.65 -153.57  -33.92  Cu0.066Cu1.868S
	Dolomite          2.29  -14.80  -17.09  CaMg(CO3)2
	Dolomite(d)       1.74  -14.80  -16.54  CaMg(CO3)2
	Epsomite         -3.83   -5.97   -2.14  MgSO4:7H2O
	FCO3Apatite      24.05  -90.35 -114.40  Ca9.316Na0.36Mg0.144(PO4)4.8(CO3)1.2F2.48
	Fe(OH)2.7Cl.3     6.36    3.32   -3.04  Fe(OH)2.7Cl0.3
	Fe(OH)3(a)        1.75    6.65    4.89  Fe(OH)3
	Fe3(OH)8         -5.92   14.30   20.22  Fe3(OH)8
	FeS(ppt)       -129.25 -133.16   -3.92  FeS
	Fluorapatite      6.94  -10.66  -17.60  Ca5(PO4)3F
	Fluorite         -0.25  -10.85  -10.60  CaF2
	Gibbsite          0.92    9.03    8.11  Al(OH)3
	Goethite          7.65    6.65   -1.00  FeOOH
	Goslarite        -9.60  -11.56   -1.96  ZnSO4:7H2O
	Greigite       -477.35 -522.38  -45.03  Fe3S4
	Gypsum           -1.25   -5.83   -4.58  CaSO4:2H2O
	H2(g)           -37.32  -40.47   -3.15  H2
	H2O(g)           -1.51   -0.00    1.51  H2O
	H2S(g)         -126.23 -127.23   -1.00  H2S
	Halite           -7.53   -5.95    1.58  NaCl
	Hausmannite       3.68   64.71   61.03  Mn3O4
	Hematite         17.30   13.29   -4.01  Fe2O3
	Huntite           0.23  -29.73  -29.97  CaMg3(CO3)4
	Hydromagnesite   -8.48  -17.24   -8.76  Mg5(CO3)4(OH)2:4H2O
	Hydroxyapatite    4.57    1.15   -3.42  Ca5(PO4)3OH
	Jarosite(ss)     -4.56  -14.39   -9.83  (K0.77Na0.03H0.2)Fe3(SO4)2(OH)6
	Jarosite-K       -4.52  -13.73   -9.21  KFe3(SO4)2(OH)6
	Jarosite-Na      -6.86  -12.14   -5.28  NaFe3(SO4)2(OH)6
	JarositeH       -11.88  -17.27   -5.39  (H3O)Fe3(SO4)2(OH)6
	Jurbanite        -6.34   -9.57   -3.23  AlOHSO4
	Langite         -13.94    2.85   16.79  Cu4(OH)6SO4:H2O
	Mackinawite    -128.52 -133.16   -4.65  FeS
	Maghemite         6.91   13.29    6.39  Fe2O3
	Magnesite         0.56   -7.47   -8.03  MgCO3
	Magnetite        10.56   14.30    3.74  Fe3O4
	Malachite        -4.19    0.96    5.15  Cu2(OH)2CO3
	Manganite         2.45   27.79   25.34  MnOOH
	Melanothallite  -20.51  -16.78    3.73  CuCl2
	Melanterite     -15.39  -17.60   -2.21  FeSO4:7H2O
	Millerite      -120.01 -128.05   -8.04  NiS
	Mirabilite       -7.24   -8.36   -1.11  Na2SO4:10H2O
	Mn2(SO4)3       -45.54  -51.25   -5.71  Mn2(SO4)3
	Mn3(PO4)2       -15.27  -39.10  -23.83  Mn3(PO4)2
	MnCl2:4H2O      -15.72  -13.01    2.71  MnCl2:4H2O
	MnHPO4            1.18  -11.77  -12.95  MnHPO4
	MnS(Green)     -128.84 -125.04    3.80  MnS
	MnSO4           -12.14   -9.47    2.67  MnSO4
	Morenosite      -10.12  -12.48   -2.36  NiSO4:7H2O
	N2(g)            -3.80   -7.06   -3.26  N2
	Nahcolite        -4.10   -4.65   -0.55  NaHCO3
	Nantokite       -14.89  -21.65   -6.76  CuCl
	Natron           -8.54   -9.85   -1.31  Na2CO3:10H2O
	Nesquehonite     -1.85   -7.47   -5.62  MgCO3:3H2O
	NH3(g)          -54.98  -53.21    1.77  NH3
	Ni(OH)2          -4.68    6.12   10.80  Ni(OH)2
	Ni3(PO4)2       -16.82  -48.12  -31.30  Ni3(PO4)2
	Ni4(OH)6SO4     -26.11    5.89   32.00  Ni4(OH)6SO4
	NiCO3            -7.14  -13.98   -6.84  NiCO3
	Nsutite           3.89   46.45   42.56  MnO2
	O2(g)            -8.55  -11.45   -2.89  O2
	Portlandite     -10.03   12.77   22.80  Ca(OH)2
	Pyrite         -211.54 -230.02  -18.48  FeS2
	Pyrochroite      -6.07    9.13   15.20  Mn(OH)2
	Pyrolusite        5.07   46.45   41.38  MnO2
	Retgersite      -10.44  -12.48   -2.04  NiSO4:6H2O
	Rhodochrosite     0.16  -10.97  -11.13  MnCO3
	Rhodochrosite(d)  -0.58  -10.97  -10.39  MnCO3
	Siderite         -8.20  -19.09  -10.89  FeCO3
	Siderite(d)(3)   -8.64  -19.09  -10.45  FeCO3
	Smithsonite      -3.06  -13.06  -10.00  ZnCO3
	Sphalerite     -115.51 -127.13  -11.62  ZnS
	SrF2             -4.62  -13.16   -8.54  SrF2
	Strengite        -0.20  -26.60  -26.40  FePO4:2H2O
	Strontianite     -0.37   -9.64   -9.27  SrCO3
	Sulfur          -94.75 -109.77  -15.03  S
	Tenorite         -2.26    5.36    7.62  CuO
	Thenardite       -8.18   -8.35   -0.18  Na2SO4
	Thermonatrite    -9.98   -9.85    0.13  Na2CO3:H2O
	Trona           -13.70  -14.50   -0.80  NaHCO3:Na2CO3:2H2O
	Vivianite       -27.47  -63.47  -36.00  Fe3(PO4)2:8H2O
	Witherite        -2.84  -11.40   -8.56  BaCO3
	Wurtzite       -117.45 -127.13   -9.68  ZnS
	Zincite(c)       -4.10    7.04   11.14  ZnO
	Zincosite       -14.57  -11.56    3.01  ZnSO4
	Zn(BO2)2        -10.72   -2.43    8.29  Zn(BO2)2
	Zn(NO3)2:6H2O   -23.95  -20.51    3.44  Zn(NO3)2:6H2O
	Zn(OH)2-a        -5.41    7.04   12.45  Zn(OH)2
	Zn(OH)2-b        -4.71    7.04   11.75  Zn(OH)2
	Zn(OH)2-c        -5.16    7.04   12.20  Zn(OH)2
	Zn(OH)2-e        -4.46    7.04   11.50  Zn(OH)2
	Zn(OH)2-g        -4.67    7.04   11.71  Zn(OH)2
	Zn2(OH)2SO4     -12.02   -4.52    7.50  Zn2(OH)2SO4
	Zn2(OH)3Cl      -12.19    3.01   15.20  Zn2(OH)3Cl
	Zn3(PO4)2:4w    -13.33  -45.37  -32.04  Zn3(PO4)2:4H2O
	Zn3O(SO4)2      -35.10  -16.08   19.02  ZnO:2ZnSO4
	Zn4(OH)6SO4     -18.84    9.56   28.40  Zn4(OH)6SO4
	Zn5(OH)8Cl2     -25.44   13.06   38.50  Zn5(OH)8Cl2
	ZnCl2           -22.13  -15.10    7.03  ZnCl2
	ZnCO3:H2O        -2.80  -13.06  -10.26  ZnCO3:H2O
	ZnF2            -15.06  -16.58   -1.52  ZnF2
	ZnMetal         -56.03  -30.28   25.76  Zn
	ZnO(a)           -4.27    7.04   11.31  ZnO
	ZnS(a)         -118.08 -127.13   -9.05  ZnS
	ZnSO4:H2O       -10.99  -11.56   -0.57  ZnSO4:H2O

------------------
End of simulation.
------------------

------------------------------------
Reading input data for simulation 2.
------------------------------------

	TITLE Part 2.--Equil. of leachate solution with minerals, exch, surf
	SOLUTION 2  Average Leachate concentrations from Lambton
	        units   ppm
	        pH      8.82
	        temp    25.0
	        Ca              480.
	        Mg              71.9
	        Na              28959.   charge
	        K               905.
	        Fe              2.75
	        Mn              0.231
	        Cl              34651.
	        Alkalinity      9630.    as CaCO3
	        S(6)            6146.
	        N(5)            0.29     as NO3
	        F               12.4
	        Br              181.
	        Al              1.32
	        As              0.050
	        Ba              0.101
	        B               22.7
	        Cu              0.1
	        Pb              0.313
	        Ni              4.79
	        P               20.0
	        Sr              2.93
	        Zn              36.3
	SAVE solution 2
	END
-----
TITLE
-----

 Part 2.--Equil. of leachate solution with minerals, exch, surf

-------------------------------------------
Beginning of initial solution calculations.
-------------------------------------------

Initial solution 2.	Average Leachate concentrations from Lambton

WARNING: Equivalent wt for alkalinity should be Ca.5(CO3).5. Using 50.0455 g/eq.
-----------------------------Solution composition------------------------------

	Elements           Molality       Moles

	Al               5.324e-005  5.324e-005
	Alkalinity       2.094e-001  2.094e-001
	As               7.263e-007  7.263e-007
	B                2.285e-003  2.285e-003
	Ba               8.003e-007  8.003e-007
	Br               2.465e-003  2.465e-003
	Ca               1.303e-002  1.303e-002
	Cl               1.064e+000  1.064e+000
	Cu               1.713e-006  1.713e-006
	F                7.103e-004  7.103e-004
	Fe               5.359e-005  5.359e-005
	K                2.519e-002  2.519e-002
	Mg               3.218e-003  3.218e-003
	Mn               4.576e-006  4.576e-006
	N(5)             5.090e-006  5.090e-006
	Na               1.357e+000  1.357e+000  Charge balance
	Ni               8.879e-005  8.879e-005
	P                7.027e-004  7.027e-004
	Pb               1.644e-006  1.644e-006
	S(6)             6.963e-002  6.963e-002
	Sr               3.639e-005  3.639e-005
	Zn               6.043e-004  6.043e-004

----------------------------Description of solution----------------------------

                                       pH  =   8.820    
                                       pe  =   4.000    
                        Activity of water  =   0.956
                           Ionic strength  =  1.374e+000
                       Mass of water (kg)  =  1.000e+000
                    Total carbon (mol/kg)  =  1.577e-001
                       Total CO2 (mol/kg)  =  1.577e-001
                      Temperature (deg C)  =  25.000
                  Electrical balance (eq)  = -1.247e-015
 Percent error, 100*(Cat-|An|)/(Cat+|An|)  =  -0.00
                               Iterations  =  12
                                  Total H  = 1.111270e+002
                                  Total O  = 5.626769e+001

----------------------------Distribution of species----------------------------

                                                   Log       Log         Log 
   Species                 Molality    Activity  Molality  Activity     Gamma

   OH-                   7.341e-006  6.321e-006    -5.134    -5.199    -0.065
   H+                    2.059e-009  1.514e-009    -8.686    -8.820    -0.134
   H2O                   5.551e+001  9.558e-001     1.744    -0.020     0.000
Al              5.324e-005
   Al(OH)4-              5.321e-005  4.582e-005    -4.274    -4.339    -0.065
   Al(OH)3               2.806e-008  3.850e-008    -7.552    -7.415     0.137
   Al(OH)2+              4.806e-010  4.138e-010    -9.318    -9.383    -0.065
   AlF3                  5.229e-011  7.174e-011   -10.282   -10.144     0.137
   AlF2+                 1.503e-011  1.295e-011   -10.823   -10.888    -0.065
   AlF4-                 1.460e-011  1.257e-011   -10.836   -10.901    -0.065
   AlOH+2                1.521e-013  8.361e-014   -12.818   -13.078    -0.260
   AlF+2                 1.067e-013  5.868e-014   -12.972   -13.232    -0.260
   AlSO4+                2.551e-016  2.197e-016   -15.593   -15.658    -0.065
   Al+3                  5.119e-017  1.333e-017   -16.291   -16.875    -0.584
   Al(SO4)2-             4.204e-017  3.620e-017   -16.376   -16.441    -0.065
   AlHSO4+2              5.362e-026  2.948e-026   -25.271   -25.530    -0.260
As(3)           1.771e-021
   H3AsO3                1.015e-021  1.392e-021   -20.994   -20.856     0.137
   H2AsO3-               7.561e-022  6.511e-022   -21.121   -21.186    -0.065
   HAsO3-2               1.561e-027  8.584e-028   -26.807   -27.066    -0.260
   H4AsO3+               1.212e-030  1.044e-030   -29.916   -29.981    -0.065
   AsO3-3                4.346e-034  1.132e-034   -33.362   -33.946    -0.584
As(5)           7.263e-007
   HAsO4-2               7.141e-007  3.927e-007    -6.146    -6.406    -0.260
   H2AsO4-               9.976e-009  8.590e-009    -8.001    -8.066    -0.065
   AsO4-3                2.231e-009  5.808e-010    -8.652    -9.236    -0.584
   H3AsO4                1.891e-015  2.594e-015   -14.723   -14.586     0.137
B               2.285e-003
   H3BO3                 1.423e-003  1.952e-003    -2.847    -2.709     0.137
   H2BO3-                8.620e-004  7.423e-004    -3.065    -3.129    -0.065
   BF(OH)3-              3.973e-007  3.421e-007    -6.401    -6.466    -0.065
   BF2(OH)2-             2.968e-011  2.556e-011   -10.528   -10.592    -0.065
   BF3OH-                2.268e-017  1.953e-017   -16.644   -16.709    -0.065
   BF4-                  6.442e-023  5.548e-023   -22.191   -22.256    -0.065
Ba              8.003e-007
   BaSO4                 3.070e-007  4.212e-007    -6.513    -6.375     0.137
   Ba+2                  2.933e-007  1.613e-007    -6.533    -6.792    -0.260
   BaCO3                 1.024e-007  1.404e-007    -6.990    -6.853     0.137
   BaHCO3+               9.766e-008  8.410e-008    -7.010    -7.075    -0.065
   BaOH+                 4.007e-012  3.451e-012   -11.397   -11.462    -0.065
Br              2.465e-003
   Br-                   2.465e-003  2.123e-003    -2.608    -2.673    -0.065
   ZnBr+                 1.756e-011  1.512e-011   -10.755   -10.820    -0.065
   NiBr+                 9.145e-012  7.875e-012   -11.039   -11.104    -0.065
   PbBr+                 9.661e-013  8.319e-013   -12.015   -12.080    -0.065
   ZnBr2                 9.314e-015  1.278e-014   -14.031   -13.893     0.137
   PbBr2                 6.020e-016  8.260e-016   -15.220   -15.083     0.137
C(4)            1.577e-001
   HCO3-                 8.503e-002  5.440e-002    -1.070    -1.264    -0.194
   NaCO3-                3.423e-002  2.948e-002    -1.466    -1.531    -0.065
   NaHCO3                2.094e-002  2.873e-002    -1.679    -1.542     0.137
   CO3-2                 1.006e-002  1.686e-003    -1.997    -2.773    -0.776
   CaCO3                 3.507e-003  4.812e-003    -2.455    -2.318     0.137
   CaHCO3+               1.373e-003  1.182e-003    -2.862    -2.927    -0.065
   MgCO3                 6.167e-004  8.461e-004    -3.210    -3.073     0.137
   Zn(CO3)2-2            5.969e-004  3.282e-004    -3.224    -3.484    -0.260
   MgHCO3+               3.888e-004  3.348e-004    -3.410    -3.475    -0.065
   CO2                   1.412e-004  1.937e-004    -3.850    -3.713     0.137
   Ni(CO3)2-2            7.809e-005  4.294e-005    -4.107    -4.367    -0.260
   NiCO3                 1.068e-005  1.466e-005    -4.971    -4.834     0.137
   ZnCO3                 6.638e-006  9.108e-006    -5.178    -5.041     0.137
   SrHCO3+               6.468e-006  4.138e-006    -5.189    -5.383    -0.194
   SrCO3                 5.351e-006  5.351e-006    -5.272    -5.272     0.000
   MnCO3                 4.085e-006  5.605e-006    -5.389    -5.251     0.137
   Pb(CO3)2-2            1.501e-006  8.254e-007    -5.824    -6.083    -0.260
   Cu(CO3)2-2            8.993e-007  4.945e-007    -6.046    -6.306    -0.260
   MnHCO3+               2.357e-007  2.030e-007    -6.628    -6.693    -0.065
   ZnHCO3+               2.154e-007  1.855e-007    -6.667    -6.732    -0.065
   CuCO3                 1.698e-007  2.330e-007    -6.770    -6.633     0.137
   PbCO3                 1.421e-007  1.949e-007    -6.847    -6.710     0.137
   BaCO3                 1.024e-007  1.404e-007    -6.990    -6.853     0.137
   BaHCO3+               9.766e-008  8.410e-008    -7.010    -7.075    -0.065
   FeCO3                 1.688e-008  2.316e-008    -7.773    -7.635     0.137
   NiHCO3+               1.023e-008  8.809e-009    -7.990    -8.055    -0.065
   FeHCO3+               3.619e-009  3.116e-009    -8.441    -8.506    -0.065
   CuHCO3+               8.150e-010  7.019e-010    -9.089    -9.154    -0.065
   PbHCO3+               3.340e-010  2.876e-010    -9.476    -9.541    -0.065
Ca              1.303e-002
   Ca+2                  6.628e-003  1.704e-003    -2.179    -2.769    -0.590
   CaCO3                 3.507e-003  4.812e-003    -2.455    -2.318     0.137
   CaHCO3+               1.373e-003  1.182e-003    -2.862    -2.927    -0.065
   CaSO4                 1.291e-003  1.772e-003    -2.889    -2.752     0.137
   CaPO4-                1.616e-004  1.391e-004    -3.792    -3.857    -0.065
   CaHPO4                6.487e-005  8.901e-005    -4.188    -4.051     0.137
   CaF+                  7.586e-006  6.533e-006    -5.120    -5.185    -0.065
   CaOH+                 2.074e-007  1.786e-007    -6.683    -6.748    -0.065
   CaH2PO4+              1.176e-007  1.013e-007    -6.930    -6.995    -0.065
   CaHSO4+               1.824e-011  1.571e-011   -10.739   -10.804    -0.065
Cl              1.064e+000
   Cl-                   1.064e+000  6.209e-001     0.027    -0.207    -0.234
   CuCl3-2               2.948e-007  1.621e-007    -6.530    -6.790    -0.260
   ZnOHCl                2.563e-007  3.516e-007    -6.591    -6.454     0.137
   CuCl2-                1.913e-007  1.647e-007    -6.718    -6.783    -0.065
   MnCl+                 1.230e-007  1.059e-007    -6.910    -6.975    -0.065
   ZnCl+                 5.256e-008  4.526e-008    -7.279    -7.344    -0.065
   ZnCl3-                2.381e-008  2.050e-008    -7.623    -7.688    -0.065
   ZnCl2                 2.145e-008  2.943e-008    -7.669    -7.531     0.137
   MnCl2                 2.092e-008  2.870e-008    -7.679    -7.542     0.137
   ZnCl4-2               1.160e-008  6.381e-009    -7.935    -8.195    -0.260
   MnCl3-                5.701e-009  4.909e-009    -8.244    -8.309    -0.065
   NiCl2                 3.007e-009  4.125e-009    -8.522    -8.385     0.137
   NiCl+                 2.125e-009  1.830e-009    -8.673    -8.738    -0.065
   FeCl+                 5.702e-010  4.910e-010    -9.244    -9.309    -0.065
   PbCl+                 1.910e-010  1.645e-010    -9.719    -9.784    -0.065
   PbCl2                 1.180e-010  1.619e-010    -9.928    -9.791     0.137
   PbCl3-                9.273e-011  7.985e-011   -10.033   -10.098    -0.065
   CuCl+                 4.996e-011  4.302e-011   -10.301   -10.366    -0.065
   PbCl4-2               4.316e-011  2.373e-011   -10.365   -10.625    -0.260
[...]
   PbBr+                 5.858e-015  4.851e-015   -14.232   -14.314    -0.082
   Pb(SO4)2-2            6.470e-016  3.042e-016   -15.189   -15.517    -0.328
   PbHCO3+               4.637e-016  3.839e-016   -15.334   -15.416    -0.082
   Pb(CO3)2-2            1.307e-016  6.145e-017   -15.884   -16.211    -0.328
   Pb(OH)3-              3.682e-017  3.049e-017   -16.434   -16.516    -0.082
   PbBr2                 5.965e-018  7.881e-018   -17.224   -17.103     0.121
   Pb(OH)4-2             3.644e-020  1.713e-020   -19.438   -19.766    -0.328
   PbF+                  3.968e-023  3.286e-023   -22.401   -22.483    -0.082
   Pb2OH+3               3.290e-025  6.022e-026   -24.483   -25.220    -0.738
   Pb3(OH)4+2            1.354e-031  6.365e-032   -30.868   -31.196    -0.328
   PbF2                  3.957e-032  5.228e-032   -31.403   -31.282     0.121
   PbNO3+                1.157e-033  9.580e-034   -32.937   -33.019    -0.082
   PbF3-                 0.000e+000  0.000e+000   -40.448   -40.530    -0.082
   PbF4-2                0.000e+000  0.000e+000   -50.631   -50.958    -0.328
   Pb(HS)2               0.000e+000  0.000e+000  -200.285  -200.164     0.121
   Pb(HS)3-              0.000e+000  0.000e+000  -299.686  -299.768    -0.082
S(-2)           0.000e+000
   HS-                   0.000e+000  0.000e+000  -100.822  -100.904    -0.082
   S5-2                  0.000e+000  0.000e+000  -101.673  -102.093    -0.420
   S4-2                  0.000e+000  0.000e+000  -101.841  -102.327    -0.486
   S6-2                  0.000e+000  0.000e+000  -102.009  -102.379    -0.370
   H2S                   0.000e+000  0.000e+000  -102.490  -102.369     0.121
   S-2                   0.000e+000  0.000e+000  -105.088  -105.416    -0.328
   S3-2                  0.000e+000  0.000e+000  -105.204  -105.780    -0.576
   S2-2                  0.000e+000  0.000e+000  -106.357  -107.026    -0.669
   Zn(HS)2               0.000e+000  0.000e+000  -196.875  -196.754     0.121
   Pb(HS)2               0.000e+000  0.000e+000  -200.285  -200.164     0.121
   Fe(HS)2               0.000e+000  0.000e+000  -214.518  -214.397     0.121
   AsS(OH)(HS)-          0.000e+000  0.000e+000  -223.554  -223.636    -0.082
   Cu(HS)3-              0.000e+000  0.000e+000  -287.405  -287.487    -0.082
   Zn(HS)3-              0.000e+000  0.000e+000  -296.417  -296.499    -0.082
   Pb(HS)3-              0.000e+000  0.000e+000  -299.686  -299.768    -0.082
   Fe(HS)3-              0.000e+000  0.000e+000  -313.182  -313.264    -0.082
   As3S4(HS)2-           0.000e+000  0.000e+000  -669.389  -669.471    -0.082
S(6)            2.200e-002
   SO4-2                 1.466e-002  2.085e-003    -1.834    -2.681    -0.847
   CaSO4                 4.280e-003  5.655e-003    -2.369    -2.248     0.121
   NaSO4-                2.839e-003  2.350e-003    -2.547    -2.629    -0.082
   KSO4-                 1.474e-004  1.220e-004    -3.832    -3.913    -0.082
   MgSO4                 5.805e-005  7.669e-005    -4.236    -4.115     0.121
   SrSO4                 2.153e-005  2.845e-005    -4.667    -4.546     0.121
   BaSO4                 4.061e-008  5.366e-008    -7.391    -7.270     0.121
   MnSO4                 3.635e-008  4.802e-008    -7.440    -7.319     0.121
   HSO4-                 9.603e-010  7.951e-010    -9.018    -9.100    -0.082
   NiSO4                 2.885e-010  3.812e-010    -9.540    -9.419     0.121
   CaHSO4+               1.570e-010  1.300e-010    -9.804    -9.886    -0.082
   ZnSO4                 4.813e-011  6.359e-011   -10.318   -10.197     0.121
   CuSO4                 6.825e-012  9.017e-012   -11.166   -11.045     0.121
   Zn(SO4)2-2            2.292e-012  1.078e-012   -11.640   -11.968    -0.328
   Ni(SO4)2-2            9.077e-014  4.267e-014   -13.042   -13.370    -0.328
   PbSO4                 2.104e-014  2.780e-014   -13.677   -13.556     0.121
   Pb(SO4)2-2            6.470e-016  3.042e-016   -15.189   -15.517    -0.328
   AlSO4+                2.639e-017  2.185e-017   -16.579   -16.660    -0.082
   Al(SO4)2-             1.740e-018  1.441e-018   -17.759   -17.841    -0.082
   FeSO4                 8.127e-023  1.074e-022   -22.090   -21.969     0.121
   AlHSO4+2              1.617e-026  7.602e-027   -25.791   -26.119    -0.328
   FeSO4+                8.408e-027  6.963e-027   -26.075   -26.157    -0.082
   Fe(SO4)2-             3.835e-028  3.175e-028   -27.416   -27.498    -0.082
   FeHSO4+               3.344e-030  2.769e-030   -29.476   -29.558    -0.082
   FeHSO4+2              1.556e-034  7.314e-035   -33.808   -34.136    -0.328
   NH4SO4-               0.000e+000  0.000e+000   -43.324   -43.406    -0.082
Si              7.773e-005
   H4SiO4                7.333e-005  9.688e-005    -4.135    -4.014     0.121
   H3SiO4-               4.397e-006  3.641e-006    -5.357    -5.439    -0.082
   H2SiO4-2              1.343e-010  6.314e-011    -9.872   -10.200    -0.328
   SiF6-2                0.000e+000  0.000e+000   -67.715   -68.043    -0.328
Sr              3.177e-004
   Sr+2                  2.961e-004  6.998e-005    -3.529    -4.155    -0.626
   SrSO4                 2.153e-005  2.845e-005    -4.667    -4.546     0.121
   SrHCO3+               3.378e-008  2.182e-008    -7.471    -7.661    -0.190
   SrCO3                 1.088e-008  1.088e-008    -7.963    -7.963     0.000
   SrOH+                 1.394e-009  8.804e-010    -8.856    -9.055    -0.200
Zn              3.246e-009
   ZnOHCl                8.540e-010  1.128e-009    -9.069    -8.948     0.121
   ZnCl3-                6.046e-010  5.007e-010    -9.219    -9.300    -0.082
   ZnCl4-2               5.698e-010  2.679e-010    -9.244    -9.572    -0.328
   ZnCl+                 4.515e-010  3.739e-010    -9.345    -9.427    -0.082
   ZnCl2                 3.164e-010  4.180e-010    -9.500    -9.379     0.121
   Zn+2                  2.768e-010  1.301e-010    -9.558    -9.886    -0.328
   Zn(OH)2               7.461e-011  9.857e-011   -10.127   -10.006     0.121
   ZnSO4                 4.813e-011  6.359e-011   -10.318   -10.197     0.121
   ZnOH+                 4.226e-011  3.500e-011   -10.374   -10.456    -0.082
   ZnCO3                 4.788e-012  6.326e-012   -11.320   -11.199     0.121
   Zn(SO4)2-2            2.292e-012  1.078e-012   -11.640   -11.968    -0.328
   ZnHCO3+               4.032e-013  3.339e-013   -12.394   -12.476    -0.082
   ZnBr+                 1.436e-013  1.189e-013   -12.843   -12.925    -0.082
   Zn(OH)3-              9.233e-014  7.646e-014   -13.035   -13.117    -0.082
   Zn(CO3)2-2            7.009e-014  3.295e-014   -13.154   -13.482    -0.328
   ZnBr2                 1.244e-016  1.644e-016   -15.905   -15.784     0.121
   Zn(OH)4-2             6.323e-018  2.972e-018   -17.199   -17.527    -0.328
   ZnF+                  1.730e-019  1.432e-019   -18.762   -18.844    -0.082
   Zn(HS)2               0.000e+000  0.000e+000  -196.875  -196.754     0.121
   Zn(HS)3-              0.000e+000  0.000e+000  -296.417  -296.499    -0.082

------------------------------Saturation indices-------------------------------

	Phase               SI log IAP  log KT

	Adularia         -0.00  -20.57  -20.57  KAlSi3O8
	Al(OH)3(a)       -3.11    7.69   10.80  Al(OH)3
	AlAsO4:2H2O     -17.53  -33.37  -15.84  AlAsO4:2H2O
	Albite           -1.14  -19.14  -18.00  NaAlSi3O8
	AlumK           -19.95  -25.12   -5.17  KAl(SO4)2:12H2O
	Alunite          -8.14   -9.54   -1.40  KAl3(SO4)2(OH)6
	Analcime         -2.48  -15.18  -12.70  NaAlSi2O6:H2O
	Anglesite        -8.52  -16.31   -7.79  PbSO4
	Anhydrite        -0.19   -4.55   -4.36  CaSO4
	Anilite         -85.78 -117.66  -31.88  Cu0.25Cu1.5S
	Annite          -33.17 -118.81  -85.64  KFe3AlSi3O10(OH)2
	Anorthite        -3.22  -22.93  -19.71  CaAl2Si2O8
	Antlerite        -9.43   -1.14    8.29  Cu3(OH)4SO4
	Aragonite        -0.14   -8.48   -8.34  CaCO3
	Arsenolite      -61.55  -62.93   -1.38  As2O3
	Artinite         -7.09    2.51    9.60  MgCO3:Mg(OH)2:3H2O
	As2O5(cr)       -48.10  -39.88    8.23  As2O5
	As2S3(am)      -345.92 -390.82  -44.90  As2S3
	As_native       -65.26  -77.79  -12.53  As
	Atacamite        -3.49    3.85    7.34  Cu2(OH)3Cl
	Azurite         -11.56   -7.81    3.75  Cu3(OH)2(CO3)2
	Ba3(AsO4)2       -3.47  -53.58  -50.11  Ba3(AsO4)2
	BaF2            -21.75  -27.51   -5.76  BaF2
	Barite           -0.00   -9.97   -9.97  BaSO4
	Basaluminite    -11.40   11.30   22.70  Al4(OH)10SO4
	Beidellite       -1.93  -47.20  -45.27  (NaKMg0.5)0.11Al2.33Si3.67O10(OH)2
	Bianchite       -10.90  -12.67   -1.76  ZnSO4:6H2O
	Birnessite       -2.81   40.79   43.60  MnO2
	Bixbyite          0.29   -0.32   -0.61  Mn2O3
	BlaubleiI       -80.94 -105.10  -24.16  Cu0.9Cu0.2S
	BlaubleiII      -83.62 -110.90  -27.28  Cu0.6Cu0.8S
	Boehmite         -0.88    7.71    8.58  AlOOH
	Brochantite     -10.38    4.96   15.34  Cu4(OH)6SO4
	Brucite          -3.86   12.98   16.84  Mg(OH)2
	Bunsenite        -4.68    7.77   12.45  NiO
	Ca3(AsO4)2:4w   -18.47  -37.37  -18.91  Ca3(AsO4)2:4H2O
	Calcite           0.00   -8.48   -8.48  CaCO3
	Celestite        -0.20   -6.84   -6.63  SrSO4
	Cerrusite        -7.11  -20.24  -13.13  PbCO3
	CH4(g)         -103.03 -105.89   -2.86  CH4
	Chalcanthite    -10.80  -13.44   -2.64  CuSO4:5H2O
	Chalcedony       -0.43   -3.98   -3.55  SiO2
	Chalcocite      -87.87 -122.49  -34.62  Cu2S
	Chalcopyrite   -181.94 -217.21  -35.27  CuFeS2
	Chlorite14A       0.00   68.38   68.38  Mg5Al2Si3O10(OH)8
	Chlorite7A       -3.37   68.38   71.75  Mg5Al2Si3O10(OH)8
	Chrysotile       -1.22   30.98   32.20  Mg3Si2O5(OH)4
	Claudetite      -61.59  -62.93   -1.34  As2O3
	Clinoenstatite   -2.33    9.01   11.34  MgSiO3
	Clpyromorphite  -23.18 -107.61  -84.43  Pb5(PO4)3Cl
	CO2(g)           -5.26   -6.73   -1.47  CO2
	Cotunnite        -8.80  -13.57   -4.77  PbCl2
	Covellite       -80.90 -103.17  -22.27  CuS
	Cristobalite     -0.39   -3.98   -3.59  SiO2
	Cu(OH)2          -2.53    6.11    8.64  Cu(OH)2
	Cu2(OH)3NO3     -25.98  -16.74    9.24  Cu2(OH)3NO3
	Cu2SO4          -30.72  -32.67   -1.95  Cu2SO4
	Cu3(AsO4)2:6w   -28.71  -63.83  -35.12  Cu3(AsO4)2:6H2O
	Cu3(PO4)2       -21.52  -58.37  -36.85  Cu3(PO4)2
	Cu3(PO4)2:3H2O  -23.30  -58.42  -35.12  Cu3(PO4)2:3H2O
	CuBr             -9.25  -17.46   -8.21  CuBr
	CuCO3            -7.66  -17.29   -9.63  CuCO3
	CuF             -32.18  -25.10    7.08  CuF
	CuF2            -30.27  -30.89   -0.62  CuF2
	CuF2:2H2O       -26.37  -30.92   -4.55  CuF2:2H2O
	CuMetal         -13.28  -22.04   -8.76  Cu
	CuOCuSO4        -18.76   -7.23   11.53  CuO:CuSO4
	CupricFerrite    -4.40    1.48    5.88  CuFe2O4
	Cuprite         -11.65  -13.20   -1.55  Cu2O
	CuprousFerrite    0.00   -8.92   -8.92  CuFeO2
	CuSO4           -16.36  -13.35    3.01  CuSO4
	Diaspore          0.83    7.71    6.88  AlOOH
	Diopside          0.07   19.96   19.89  CaMgSi2O6
	Dioptase         -4.38    2.12    6.50  CuSiO3:H2O
	Djurleite       -87.29 -121.21  -33.92  Cu0.066Cu1.868S
	Dolomite         -1.81  -18.90  -17.09  CaMg(CO3)2
	Dolomite(d)      -2.36  -18.90  -16.54  CaMg(CO3)2
	Epsomite         -4.46   -6.60   -2.14  MgSO4:7H2O
	FCO3Apatite       0.00 -114.40 -114.40  Ca9.316Na0.36Mg0.144(PO4)4.8(CO3)1.2F2.48
	Fe(OH)2.7Cl.3    -1.82   -4.86   -3.04  Fe(OH)2.7Cl0.3
	Fe(OH)3(a)       -7.24   -2.35    4.89  Fe(OH)3
	Fe3(OH)8        -29.68   -9.45   20.22  Fe3(OH)8
	FeS(ppt)       -110.12 -114.04   -3.92  FeS
	Fluorapatite     -4.32  -21.92  -17.60  Ca5(PO4)3F
	Fluorite        -11.48  -22.08  -10.60  CaF2
	Forsterite       -6.30   22.00   28.31  Mg2SiO4
	Galena          -93.34 -106.12  -12.78  PbS
	Gibbsite         -0.42    7.69    8.11  Al(OH)3
	Goethite         -1.33   -2.33   -1.00  FeOOH
	Goslarite       -10.72  -12.68   -1.96  ZnSO4:7H2O
	Greenalite      -43.03  -22.22   20.81  Fe3Si2O5(OH)4
	Greigite       -401.53 -446.56  -45.03  Fe3S4
	Gypsum            0.00   -4.58   -4.58  CaSO4:2H2O
	H2(g)           -30.90  -34.05   -3.15  H2
	H2O(g)           -1.53   -0.02    1.51  H2O
	H2S(g)         -101.37 -102.37   -1.00  H2S
	Halite           -2.20   -0.62    1.58  NaCl
	Halloysite       -5.06    7.44   12.50  Al2Si2O5(OH)4
	Hausmannite      -0.42   60.61   61.03  Mn3O4
	Hematite         -0.64   -4.64   -4.01  Fe2O3
	Hinsdalite      -29.08  -31.58   -2.50  PbAl3PO4SO4(OH)6
	Huntite          -9.76  -39.73  -29.97  CaMg3(CO3)4
	Hxypyromorphite -36.46  -99.25  -62.79  Pb5(PO4)3OH
	Hydrocerrusite  -19.86  -37.32  -17.46  Pb(OH)2:2PbCO3
	Hydromagnesite  -20.00  -28.76   -8.76  Mg5(CO3)4(OH)2:4H2O
	Hydroxyapatite    0.00   -3.42   -3.42  Ca5(PO4)3OH
	Illite           -1.03  -41.30  -40.27  K0.6Mg0.25Al2.3Si3.5O10(OH)2
	Jarosite(ss)    -31.04  -40.87   -9.83  (K0.77Na0.03H0.2)Fe3(SO4)2(OH)6
	Jarosite-K      -30.44  -39.65   -9.21  KFe3(SO4)2(OH)6
	Jarosite-Na     -32.94  -38.22   -5.28  NaFe3(SO4)2(OH)6
	JarositeH       -40.61  -46.00   -5.39  (H3O)Fe3(SO4)2(OH)6
	Jurbanite        -8.54  -11.77   -3.23  AlOHSO4
	Kaolinite         0.00    7.44    7.43  Al2Si2O5(OH)4
	Kmica             4.80   17.50   12.70  KAl3Si3O10(OH)2
	Langite         -11.85    4.94   16.79  Cu4(OH)6SO4:H2O
	Larnakite       -12.85  -13.13   -0.28  PbO:PbSO4
	Laumontite       -0.00  -30.96  -30.96  CaAl2Si4O12:4H2O
	Laurionite       -5.83   -5.21    0.62  PbOHCl
	Leonhardite       7.85  -61.90  -69.76  Ca2Al4Si8O24:7H2O
	Litharge         -9.55    3.17   12.72  PbO
	Mackinawite    -109.39 -114.04   -4.65  FeS
	Magadiite        -5.89  -20.19  -14.30  NaSi7O13(OH)3:3H2O
	Maghemite       -11.03   -4.64    6.39  Fe2O3
	Magnesite        -2.39  -10.42   -8.03  MgCO3
	Magnetite       -13.12   -9.39    3.74  Fe3O4
	Malachite        -6.00   -0.85    5.15  Cu2(OH)2CO3
	Manganite         0.00   25.34   25.34  MnOOH
	Massicot         -9.74    3.17   12.91  PbO
	Matlockite      -14.27  -23.70   -9.43  PbClF
	Melanothallite  -14.35  -10.62    3.73  CuCl2
	Melanterite     -22.13  -24.34   -2.21  FeSO4:7H2O
	Millerite       -93.48 -101.53   -8.04  NiS
	Minium          -33.30   40.39   73.69  Pb3O4
	Mirabilite       -3.03   -4.14   -1.11  Na2SO4:10H2O
	Mn2(SO4)3       -53.04  -58.75   -5.71  Mn2(SO4)3
	Mn3(AsO4)2:8H2O -23.80  -52.50  -28.71  Mn3(AsO4)2:8H2O
	Mn3(PO4)2       -23.18  -47.01  -23.83  Mn3(PO4)2
	MnCl2:4H2O       -9.61   -6.90    2.71  MnCl2:4H2O
	MnHPO4           -3.17  -16.12  -12.95  MnHPO4
	MnS(Green)     -103.19  -99.39    3.80  MnS
	MnSO4           -12.24   -9.57    2.67  MnSO4
	Montmorillonite-Aberdeen  -0.46  -30.15  -29.69  (HNaK)0.14Mg0.45Fe0.33Al1.47Si3.82O10(OH)2
	Montmorillonite-BelleFourche   0.26  -34.66  -34.91  (HNaK)0.09Mg0.29Fe0.24Al1.57Si3.93O10(OH)2
	Montmorillonite-Ca  -1.97  -47.00  -45.03  Ca0.165Al2.33Si3.67O10(OH)2
	Morenosite       -9.47  -11.83   -2.36  NiSO4:7H2O
	N2(g)            -1.98   -5.24   -3.26  N2
	Nahcolite        -4.79   -5.34   -0.55  NaHCO3
	Nantokite        -8.21  -14.97   -6.76  CuCl
	Natron           -6.76   -8.08   -1.31  Na2CO3:10H2O
	Nesquehonite     -4.85  -10.47   -5.62  MgCO3:3H2O
	NH3(g)          -44.44  -42.67    1.77  NH3
	Ni(OH)2          -3.05    7.75   10.80  Ni(OH)2
	Ni2SiO4          -2.98   11.56   14.54  Ni2SiO4
	Ni3(AsO4)2:8H2O -33.41  -58.92  -25.51  Ni3(AsO4)2:8H2O
	Ni3(PO4)2       -22.13  -53.43  -31.30  Ni3(PO4)2
	Ni4(OH)6SO4     -20.45   11.55   32.00  Ni4(OH)6SO4
	NiCO3            -8.80  -15.64   -6.84  NiCO3
	Nsutite          -1.78   40.79   42.56  MnO2
	O2(g)           -21.43  -24.32   -2.89  O2
	Orpiment       -344.52 -390.82  -46.30  As2S3
	Pb(BO2)2         -9.78   -2.17    7.61  Pb(BO2)2
	Pb(OH)2          -5.00    3.15    8.15  Pb(OH)2
	Pb2(OH)3Cl      -10.85   -2.05    8.79  Pb2(OH)3Cl
	Pb2O(OH)2       -19.87    6.33   26.20  PbO:Pb(OH)2
	Pb2O3           -23.82   37.22   61.04  Pb2O3
	Pb2OCO3         -16.57  -17.07   -0.50  PbO:PbCO3
	Pb2SiO4         -17.40    2.36   19.76  Pb2SiO4
	Pb3(AsO4)2      -37.18  -72.58  -35.40  Pb3(AsO4)2
	Pb3(PO4)2       -22.86  -42.53  -19.67  Pb3(PO4)2
	Pb3O2CO3        -24.92  -13.90   11.02  PbCO3:2PbO
	Pb3O2SO4        -20.36   -9.96   10.40  PbSO4:2PbO
	Pb4(OH)6SO4     -27.94   -6.84   21.10  Pb4(OH)6SO4
	Pb4O3SO4        -28.89   -6.79   22.10  PbSO4:3PbO
	PbBr2           -13.36  -18.54   -5.18  PbBr2
	PbBrF           -17.70  -26.19   -8.49  PbBrF
	PbF2            -26.40  -33.84   -7.44  PbF2
	PbHPO4          -11.40  -22.86  -11.46  PbHPO4
	PbMetal         -31.98  -27.71    4.27  Pb
	PbO:0.3H2O       -9.81    3.17   12.98  PbO:0.33H2O
	PbSiO3           -8.13   -0.81    7.32  PbSiO3
	Phillipsite       0.00  -19.87  -19.87  Na0.5K0.5AlSi3O8:H2O
	Phlogopite       -2.25   41.05   43.30  KMg3AlSi3O10(OH)2
	Phosgenite      -14.00  -33.81  -19.81  PbCl2:PbCO3
	Plattnerite     -15.25   34.05   49.30  PbO2
	Plumbogummite   -17.69  -50.48  -32.79  PbAl3(PO4)2(OH)5:H2O
	Portlandite      -7.89   14.91   22.80  Ca(OH)2
	Prehnite         -0.31  -12.00  -11.70  Ca2Al2Si3O10(OH)2
	Pyrite         -173.97 -192.45  -18.48  FeS2
	Pyrochroite      -5.31    9.89   15.20  Mn(OH)2
	Pyrolusite       -0.59   40.79   41.38  MnO2
	Pyrophyllite      2.47  -45.84  -48.31  Al2Si4O10(OH)2
	Quartz           -0.00   -3.98   -3.98  SiO2
	Realgar        -136.26 -156.20  -19.94  AsS
	Retgersite       -9.77  -11.81   -2.04  NiSO4:6H2O
	Rhodochrosite    -2.37  -13.50  -11.13  MnCO3
	Rhodochrosite(d)  -3.11  -13.50  -10.39  MnCO3
	Scorodite       -23.15  -43.40  -20.25  FeAsO4:2H2O
	Sepiolite        -1.78   13.98   15.76  Mg2Si3O7.5OH:3H2O
	Sepiolite(d)     -4.68   13.98   18.66  Mg2Si3O7.5OH:3H2O
	Siderite        -17.26  -28.15  -10.89  FeCO3
	Siderite(d)(3)  -17.70  -28.15  -10.45  FeCO3
	Silicagel        -0.96   -3.98   -3.02  SiO2
	SiO2(a)          -1.27   -3.98   -2.71  SiO2
	Smithsonite      -6.50  -16.50  -10.00  ZnCO3
	Sphalerite      -90.77 -102.38  -11.62  ZnS
	SrF2            -15.83  -24.37   -8.54  SrF2
	Strengite       -14.32  -40.72  -26.40  FePO4:2H2O
	Strontianite     -1.50  -10.77   -9.27  SrCO3
	Sulfur          -76.31  -91.33  -15.03  S
	Talc              1.64   23.04   21.40  Mg3Si4O10(OH)2
	Tenorite         -1.50    6.12    7.62  CuO
	Thenardite       -3.80   -3.98   -0.18  Na2SO4
	Thermonatrite    -8.05   -7.93    0.13  Na2CO3:H2O
	Tremolite         6.38   62.96   56.57  Ca2Mg5Si8O22(OH)2
	Trona           -12.49  -13.28   -0.80  NaHCO3:Na2CO3:2H2O
	Tsumebite       -16.19  -25.98   -9.79  Pb2CuPO4(OH)3:3H2O
	Vivianite       -55.09  -91.09  -36.00  Fe3(PO4)2:8H2O
	Wairakite        -4.22  -30.93  -26.71  CaAl2Si4O12:2H2O
	Willemite        -5.49    9.84   15.33  Zn2SiO4
	Witherite        -5.34  -13.90   -8.56  BaCO3
	Wurtzite        -92.70 -102.38   -9.68  ZnS
	Zincite(c)       -4.23    6.91   11.14  ZnO
	Zincosite       -15.58  -12.57    3.01  ZnSO4
	Zn(BO2)2         -6.72    1.57    8.29  Zn(BO2)2
	Zn(NO3)2:6H2O   -54.55  -51.11    3.44  Zn(NO3)2:6H2O
	Zn(OH)2-a        -5.56    6.89   12.45  Zn(OH)2
	Zn(OH)2-b        -4.86    6.89   11.75  Zn(OH)2
	Zn(OH)2-c        -5.31    6.89   12.20  Zn(OH)2
	Zn(OH)2-e        -4.61    6.89   11.50  Zn(OH)2
	Zn(OH)2-g        -4.82    6.89   11.71  Zn(OH)2
	Zn2(OH)2SO4     -13.17   -5.67    7.50  Zn2(OH)2SO4
	Zn2(OH)3Cl       -9.77    5.43   15.20  Zn2(OH)3Cl
	Zn3(AsO4)2:2.5w -33.86  -61.41  -27.55  Zn3(AsO4)2:2.5H2O
	Zn3(PO4)2:4w    -24.03  -56.07  -32.04  Zn3(PO4)2:4H2O
	Zn3O(SO4)2      -37.24  -18.22   19.02  ZnO:2ZnSO4
	Zn4(OH)6SO4     -20.29    8.11   28.40  Zn4(OH)6SO4
	Zn5(OH)8Cl2     -20.75   17.75   38.50  Zn5(OH)8Cl2
	ZnBr2:2H2O      -20.05  -14.84    5.21  ZnBr2:2H2O
	ZnCl2           -16.86   -9.83    7.03  ZnCl2
	ZnCO3:H2O        -6.26  -16.52  -10.26  ZnCO3:H2O
	ZnF2            -28.58  -30.10   -1.52  ZnF2
	ZnMetal         -49.73  -23.97   25.76  Zn
	ZnO(a)           -4.40    6.91   11.31  ZnO
	ZnS(a)          -93.33 -102.38   -9.05  ZnS
	ZnSiO3           -0.00    2.93    2.93  ZnSiO3
	ZnSO4:H2O       -12.01  -12.58   -0.57  ZnSO4:H2O

------------------
End of simulation.
------------------

------------------------------------
Reading input data for simulation 4.
------------------------------------

-----------
End of run.
-----------

