   Input file: saver
  Output file: saver.out
Database file: ../database/phreeqc.dat

------------------
Reading data base.
------------------

	SOLUTION_MASTER_SPECIES
	SOLUTION_SPECIES
	PHASES
	EXCHANGE_MASTER_SPECIES
	EXCHANGE_SPECIES
	SURFACE_MASTER_SPECIES
	SURFACE_SPECIES
	RATES
	END
------------------------------------
Reading input data for simulation 1.
------------------------------------

	DATABASE ../database/phreeqc.dat
	knobs
		logfile
	PRINT
		status false
	SURFACE 1-2
		equilibrate with solution 1
		SurfOH	0.001	1071.	0.33
	SURFACE_MASTER_SPECIES
		Surf	SurfOH
	SURFACE_SPECIES
		SurfOH = SurfOH
		log_k	0.0
		SurfOH  + H+ = SurfOH2+
		log_k	6.3
		SurfOH = SurfO- + H+
		log_k	-7.1
		SurfOH + MoO4-2 + H+ = SurfMoO4- + H2O
		log_k	8.8
		SurfOH + MoO4-2 = SurfOHMoO4-2
		log_k	2.2
	SOLUTION_MASTER_SPECIES
		Mo	MoO4-2		1.0	160.94		95.94
	SOLUTION_SPECIES
		MoO4-2 = MoO4-2
		log_k	0.0
		MoO4-2 + H+ = HMoO4-
		log_k	4.24
		MoO4-2 + 2H+ = H2MoO4
		log_k	6.85
		MoO4-2 + Ca+2 = CaMoO4
		log_k	2.57
		MoO4-2 + Mg+2 = MgMoO4
		log_k	3.03
	REACTION 1-2  	Reaction test
		HCl  1.0
		1.0 mol in 2 steps
	REACTION_TEMPERATURE 1-2
		25.0 35.0 in 2 steps
	EXCHANGE 1-2
		CaX2	1.0 
		NaX     1.0
	SOLUTION 1-2	Seawater
		Temp 25.
		pH 8.22  # charge
		density 1.02
		pe  8.45 #	O2(g) -0.7
		units ppm
		Mo      1.0 ppb
		Ca	412.3   # Calcite
		Mg	1291.8
		Na	10768.0
		O(0)	8.	O2(g) -0.7	#equilibrium with atmospheric oxygen
		K	399.1
		Fe	2.0 ppb	N(5)/N(-3)	#units are ppb for iron
		Mn   	0.0002
		Al	0.002
		Ba	0.02
		Sr	8.14
		Si  	4.28
		Cl	19353.0
		Alkalinity	141.682	as HCO3	#concentration given as bicarbonate
		S(6)	2712.0 
		N(5) N(3)	0.290   as NO3
		B	24.45
		P	0.06    as PO4
		F	1.39
		Li	0.181
		Br	67.3
		N(-3)	0.03 	as NH4
		N(0)	1.0    	N2(g) -0.3	#equilibrium with atmospheric nitrogen
	PURE_PHASES 1-2  Complete phase assemblage
		Gibbsite	0.0     2.0
		Kaolinite	0.0     5.0
		Chalcedony	0.0     2.1
		Calcite		0.0 	1.0
		Dolomite	0.0     1.0
		Anhydrite	0.0     1.0
		Gypsum		0.0     1.0
		Siderite	0.0     1.0
		FeS(ppt)	0.0     1.0
		Goethite	0.0     1.0
		Sulfur		0.0     0.0
		Aragonite	0.0 	2.5
	GAS_PHASE 1-2
		pressure 	1.0
		volume		1.0
		temp		25.0
		CH4(g)          0.000001
		CO2(g)		0.000316
		O2(g)		0.2
		N2(g)		0.78
	USE SOLUTION 1
	USE SURFACE 1
	USE EXCHANGE 1
	USE PURE_PHASES 1
	USE REACTION 1
	USE GAS_PHASE 1
	USE REACTION_TEMPERATURE 1
	SAVE SOLUTION 3
	SAVE SURFACE 3
	SAVE EXCHANGE 3
	SAVE PURE_PHASES 3
	SAVE GAS_PHASE 3
	END
-------------------------------------------
Beginning of initial solution calculations.
-------------------------------------------

Initial solution 1.	Seawater

-----------------------------Solution composition------------------------------

	Elements           Molality       Moles

	Al               7.683e-008  7.683e-008
	Alkalinity       2.407e-003  2.407e-003
	B                2.344e-003  2.344e-003
	Ba               1.509e-007  1.509e-007
	Br               8.730e-004  8.730e-004
	Ca               1.066e-002  1.066e-002
	Cl               5.658e-001  5.658e-001
	F                7.583e-005  7.583e-005
	Fe               3.712e-008  3.712e-008
	K                1.058e-002  1.058e-002
	Li               2.704e-005  2.704e-005
	Mg               5.507e-002  5.507e-002
	Mn               3.773e-009  3.773e-009
	Mo               6.440e-009  6.440e-009
	N(-3)            1.724e-006  1.724e-006
	N(0)             4.715e-004  4.715e-004  Equilibrium with N2(g)
	N(5) N(3)        4.848e-006  4.848e-006
	Na               4.855e-001  4.855e-001
	O(0)             4.376e-004  4.376e-004  Equilibrium with O2(g)
	P                6.548e-007  6.548e-007
	S(6)             2.926e-002  2.926e-002
	Si               7.383e-005  7.383e-005
	Sr               9.629e-005  9.629e-005

----------------------------Description of solution----------------------------

                                       pH  =   8.220    
                                       pe  =   8.450    
       Specific Conductance (uS/cm, 25 oC) = 52846
                          Density (g/cm3)  =   1.02327
                        Activity of water  =   0.980
                           Ionic strength  =  6.757e-001
                       Mass of water (kg)  =  1.000e+000
                    Total carbon (mol/kg)  =  1.901e-003
                       Total CO2 (mol/kg)  =  1.901e-003
                      Temperature (deg C)  =  25.000
                  Electrical balance (eq)  =  6.433e-005
 Percent error, 100*(Cat-|An|)/(Cat+|An|)  =   0.01
                               Iterations  =   8
                                  Total H  = 1.110212e+002
                                  Total O  = 5.563675e+001

---------------------------------Redox couples---------------------------------

	Redox couple             pe  Eh (volts)

	N(-3)/N(0)          -4.3599     -0.2579
	N(-3)/N(5)           4.6750      0.2766
	N(0)/N(5)           10.0960      0.5972
	O(-2)/O(0)          12.4062      0.7339

----------------------------Distribution of species----------------------------

                                                   Log       Log         Log 
   Species                 Molality    Activity  Molality  Activity     Gamma

   OH-                   2.674e-006  1.629e-006    -5.573    -5.788    -0.215
   H+                    7.982e-009  6.026e-009    -8.098    -8.220    -0.122
   H2O                   5.551e+001  9.805e-001     1.744    -0.009     0.000
Al              7.683e-008
   Al(OH)4-              7.666e-008  5.728e-008    -7.115    -7.242    -0.127
   Al(OH)3               1.599e-010  1.868e-010    -9.796    -9.729     0.068
   Al(OH)2+              1.043e-011  7.790e-012   -10.982   -11.108    -0.127
   AlOH+2                1.959e-014  6.108e-015   -13.708   -14.214    -0.506
   AlF2+                 1.567e-014  1.171e-014   -13.805   -13.932    -0.127
   AlF3                  3.137e-015  3.665e-015   -14.504   -14.436     0.068
   AlF+2                 3.014e-015  9.396e-016   -14.521   -15.027    -0.506
   AlF4-                 4.854e-017  3.627e-017   -16.314   -16.440    -0.127
   Al+3                  4.745e-017  3.779e-018   -16.324   -17.423    -1.099
   AlSO4+                4.259e-017  3.182e-017   -16.371   -16.497    -0.127
   Al(SO4)2-             3.586e-018  2.680e-018   -17.445   -17.572    -0.127
   AlF5-2                4.584e-020  1.429e-020   -19.339   -19.845    -0.506
   AlF6-3                4.892e-024  3.553e-025   -23.311   -24.449    -1.139
   AlHSO4+2              5.453e-026  1.700e-026   -25.263   -25.769    -0.506
B               2.344e-003
   H3BO3                 2.040e-003  2.383e-003    -2.690    -2.623     0.068
   H2BO3-                3.046e-004  2.276e-004    -3.516    -3.643    -0.127
   BF(OH)3-              3.157e-008  2.359e-008    -7.501    -7.627    -0.127
   BF2(OH)2-             5.168e-013  3.862e-013   -12.287   -12.413    -0.127
   BF3OH-                8.658e-020  6.469e-020   -19.063   -19.189    -0.127
   BF4-                  5.389e-026  4.027e-026   -25.268   -25.395    -0.127
Ba              1.509e-007
   Ba+2                  1.233e-007  2.389e-008    -6.909    -7.622    -0.713
   BaSO4                 2.729e-008  3.188e-008    -7.564    -7.496     0.068
   BaHCO3+               2.732e-010  2.042e-010    -9.564    -9.690    -0.127
   BaCO3                 7.330e-011  8.564e-011   -10.135   -10.067     0.068
   BaOH+                 1.763e-013  1.317e-013   -12.754   -12.880    -0.127
Br              8.730e-004
   Br-                   8.730e-004  5.125e-004    -3.059    -3.290    -0.231
C(4)            1.901e-003
   HCO3-                 1.320e-003  8.916e-004    -2.879    -3.050    -0.170
   MgHCO3+               1.915e-004  1.431e-004    -3.718    -3.844    -0.127
   NaHCO3                1.454e-004  1.698e-004    -3.838    -3.770     0.068
   MgCO3                 7.772e-005  9.081e-005    -4.109    -4.042     0.068
   NaCO3-                5.858e-005  4.377e-005    -4.232    -4.359    -0.127
   CaHCO3+               4.012e-005  2.710e-005    -4.397    -4.567    -0.170
   CO3-2                 3.333e-005  6.939e-006    -4.477    -5.159    -0.681
   CaCO3                 2.377e-005  2.777e-005    -4.624    -4.556     0.068
   CO2                   1.054e-005  1.232e-005    -4.977    -4.909     0.068
   SrHCO3+               4.277e-007  2.889e-007    -6.369    -6.539    -0.170
   SrCO3                 8.032e-008  9.384e-008    -7.095    -7.028     0.068
   BaHCO3+               2.732e-010  2.042e-010    -9.564    -9.690    -0.127
   MnCO3                 2.377e-010  2.777e-010    -9.624    -9.556     0.068
   BaCO3                 7.330e-011  8.564e-011   -10.135   -10.067     0.068
   MnHCO3+               5.358e-011  4.003e-011   -10.271   -10.398    -0.127
   FeCO3                 8.810e-013  1.029e-012   -12.055   -11.987     0.068
   FeHCO3+               7.378e-013  5.513e-013   -12.132   -12.259    -0.127
Ca              1.066e-002
   Ca+2                  9.514e-003  2.383e-003    -2.022    -2.623    -0.601
   CaSO4                 1.084e-003  1.266e-003    -2.965    -2.898     0.068
   CaHCO3+               4.012e-005  2.710e-005    -4.397    -4.567    -0.170
   CaCO3                 2.377e-005  2.777e-005    -4.624    -4.556     0.068
   CaF+                  6.905e-007  5.159e-007    -6.161    -6.287    -0.127
   CaOH+                 8.611e-008  6.434e-008    -7.065    -7.191    -0.127
   CaHPO4                3.136e-008  3.664e-008    -7.504    -7.436     0.068
   CaPO4-                1.925e-008  1.439e-008    -7.715    -7.842    -0.127
   CaMoO4                2.950e-010  3.446e-010    -9.530    -9.463     0.068
   CaH2PO4+              2.221e-010  1.660e-010    -9.653    -9.780    -0.127
   CaHSO4+               5.980e-011  4.469e-011   -10.223   -10.350    -0.127
Cl              5.658e-001
   Cl-                   5.658e-001  3.528e-001    -0.247    -0.453    -0.205
   MnCl+                 9.690e-010  7.241e-010    -9.014    -9.140    -0.127
   MnCl2                 9.543e-011  1.115e-010   -10.020    -9.953     0.068
   MnCl3-                1.450e-011  1.083e-011   -10.839   -10.965    -0.127
   FeCl+                 4.030e-012  3.011e-012   -11.395   -11.521    -0.127
   FeCl+2                9.548e-019  2.977e-019   -18.020   -18.526    -0.506
   FeCl2+                6.278e-019  4.691e-019   -18.202   -18.329    -0.127
   FeCl3                 1.416e-020  1.655e-020   -19.849   -19.781     0.068
F               7.583e-005
   F-                    4.082e-005  2.486e-005    -4.389    -4.604    -0.215
   MgF+                  3.015e-005  2.253e-005    -4.521    -4.647    -0.127
   NaF                   4.148e-006  4.846e-006    -5.382    -5.315     0.068
   CaF+                  6.905e-007  5.159e-007    -6.161    -6.287    -0.127
   BF(OH)3-              3.157e-008  2.359e-008    -7.501    -7.627    -0.127
   HF                    1.923e-010  2.247e-010    -9.716    -9.648     0.068
   BF2(OH)2-             5.168e-013  3.862e-013   -12.287   -12.413    -0.127
   MnF+                  1.160e-013  8.666e-014   -12.936   -13.062    -0.127
   HF2-                  2.868e-014  2.143e-014   -13.542   -13.669    -0.127
   AlF2+                 1.567e-014  1.171e-014   -13.805   -13.932    -0.127
   AlF3                  3.137e-015  3.665e-015   -14.504   -14.436     0.068
   AlF+2                 3.014e-015  9.396e-016   -14.521   -15.027    -0.506
   FeF+                  2.057e-015  1.537e-015   -14.687   -14.813    -0.127
   AlF4-                 4.854e-017  3.627e-017   -16.314   -16.440    -0.127
   FeF+2                 3.531e-018  1.101e-018   -17.452   -17.958    -0.506
   FeF2+                 1.458e-018  1.090e-018   -17.836   -17.963    -0.127
   BF3OH-                8.658e-020  6.469e-020   -19.063   -19.189    -0.127
   AlF5-2                4.584e-020  1.429e-020   -19.339   -19.845    -0.506
   FeF3                  3.675e-020  4.294e-020   -19.435   -19.367     0.068
   AlF6-3                4.892e-024  3.553e-025   -23.311   -24.449    -1.139
   BF4-                  5.389e-026  4.027e-026   -25.268   -25.395    -0.127
   SiF6-2                1.359e-034  4.236e-035   -33.867   -34.373    -0.506
Fe(2)           3.553e-011
   Fe+2                  2.695e-011  6.183e-012   -10.569   -11.209    -0.639
   FeCl+                 4.030e-012  3.011e-012   -11.395   -11.521    -0.127
   FeSO4                 2.506e-012  2.928e-012   -11.601   -11.533     0.068
   FeCO3                 8.810e-013  1.029e-012   -12.055   -11.987     0.068
   FeHCO3+               7.378e-013  5.513e-013   -12.132   -12.259    -0.127
   FeOH+                 4.258e-013  3.182e-013   -12.371   -12.497    -0.127
   FeF+                  2.057e-015  1.537e-015   -14.687   -14.813    -0.127
   FeHPO4                5.910e-016  6.905e-016   -15.228   -15.161     0.068
   FeH2PO4+              1.129e-017  8.436e-018   -16.947   -17.074    -0.127
   FeHSO4+               1.552e-019  1.160e-019   -18.809   -18.936    -0.127
Fe(3)           3.708e-008
   Fe(OH)3               2.838e-008  3.316e-008    -7.547    -7.479     0.068
   Fe(OH)4-              6.585e-009  4.921e-009    -8.181    -8.308    -0.127
   Fe(OH)2+              2.117e-009  1.582e-009    -8.674    -8.801    -0.127
   FeOH+2                9.416e-014  2.936e-014   -13.026   -13.532    -0.506
   FeF+2                 3.531e-018  1.101e-018   -17.452   -17.958    -0.506
   FeF2+                 1.458e-018  1.090e-018   -17.836   -17.963    -0.127
   FeSO4+                1.092e-018  8.159e-019   -17.962   -18.088    -0.127
   FeCl+2                9.548e-019  2.977e-019   -18.020   -18.526    -0.506
   FeCl2+                6.278e-019  4.691e-019   -18.202   -18.329    -0.127
   Fe+3                  3.509e-019  2.794e-020   -18.455   -19.554    -1.099
   Fe(SO4)2-             6.361e-020  4.753e-020   -19.196   -19.323    -0.127
   FeF3                  3.675e-020  4.294e-020   -19.435   -19.367     0.068
   FeCl3                 1.416e-020  1.655e-020   -19.849   -19.781     0.068
   FeHPO4+               2.823e-022  2.110e-022   -21.549   -21.676    -0.127
   FeH2PO4+2             6.566e-023  2.047e-023   -22.183   -22.689    -0.506
   Fe2(OH)2+4            2.455e-024  2.320e-026   -23.610   -25.635    -2.025
   FeHSO4+2              4.222e-026  1.316e-026   -25.374   -25.881    -0.506
   Fe3(OH)4+5            1.117e-029  7.666e-033   -28.952   -32.115    -3.163
H(0)            5.539e-037
   H2                    2.770e-037  3.236e-037   -36.558   -36.490     0.068
K               1.058e-002
   K+                    1.042e-002  6.495e-003    -1.982    -2.187    -0.205
   KSO4-                 1.626e-004  1.215e-004    -3.789    -3.915    -0.127
   KOH                   3.136e-009  3.664e-009    -8.504    -8.436     0.068
   KHPO4-                4.754e-010  3.552e-010    -9.323    -9.450    -0.127
Li              2.704e-005
   Li+                   2.675e-005  1.851e-005    -4.573    -4.733    -0.160
   LiSO4-                2.880e-007  2.152e-007    -6.541    -6.667    -0.127
   LiOH                  5.907e-011  6.901e-011   -10.229   -10.161     0.068
Mg              5.507e-002
   Mg+2                  4.743e-002  1.371e-002    -1.324    -1.863    -0.539
   MgSO4                 7.327e-003  8.561e-003    -2.135    -2.067     0.068
   MgHCO3+               1.915e-004  1.431e-004    -3.718    -3.844    -0.127
   MgCO3                 7.772e-005  9.081e-005    -4.109    -4.042     0.068
   MgF+                  3.015e-005  2.253e-005    -4.521    -4.647    -0.127
   MgOH+                 1.084e-005  8.102e-006    -4.965    -5.091    -0.127
   MgHPO4                2.441e-007  2.852e-007    -6.612    -6.545     0.068
   MgPO4-                1.495e-007  1.117e-007    -6.825    -6.952    -0.127
   MgMoO4                4.896e-009  5.721e-009    -8.310    -8.243     0.068
   MgH2PO4+              1.628e-009  1.216e-009    -8.788    -8.915    -0.127
Mn(2)           3.773e-009
   Mn+2                  2.196e-009  5.038e-010    -8.658    -9.298    -0.639
   MnCl+                 9.690e-010  7.241e-010    -9.014    -9.140    -0.127
   MnCO3                 2.377e-010  2.777e-010    -9.624    -9.556     0.068
   MnSO4                 2.042e-010  2.386e-010    -9.690    -9.622     0.068
   MnCl2                 9.543e-011  1.115e-010   -10.020    -9.953     0.068
   MnHCO3+               5.358e-011  4.003e-011   -10.271   -10.398    -0.127
   MnCl3-                1.450e-011  1.083e-011   -10.839   -10.965    -0.127
   MnOH+                 2.820e-012  2.107e-012   -11.550   -11.676    -0.127
   MnF+                  1.160e-013  8.666e-014   -12.936   -13.062    -0.127
   Mn(NO3)2              1.390e-020  1.624e-020   -19.857   -19.789     0.068
Mn(3)           6.041e-026
   Mn+3                  6.041e-026  4.388e-027   -25.219   -26.358    -1.139
Mo              6.440e-009
   MgMoO4                4.896e-009  5.721e-009    -8.310    -8.243     0.068
   MoO4-2                1.249e-009  3.893e-010    -8.904    -9.410    -0.506
   CaMoO4                2.950e-010  3.446e-010    -9.530    -9.463     0.068
   HMoO4-                5.455e-014  4.077e-014   -13.263   -13.390    -0.127
   H2MoO4                8.565e-020  1.001e-019   -19.067   -19.000     0.068
N(-3)           1.724e-006
   NH4+                  1.609e-006  9.048e-007    -5.793    -6.043    -0.250
   NH3                   7.324e-008  8.557e-008    -7.135    -7.068     0.068
   NH4SO4-               4.154e-008  3.104e-008    -7.382    -7.508    -0.127
N(0)            4.715e-004
   N2                    2.357e-004  2.754e-004    -3.628    -3.560     0.068
N(3)            8.396e-011
   NO2-                  8.396e-011  4.929e-011   -10.076   -10.307    -0.231
N(5)            4.847e-006
   NO3-                  4.847e-006  2.846e-006    -5.314    -5.546    -0.231
   Mn(NO3)2              1.390e-020  1.624e-020   -19.857   -19.789     0.068
Na              4.855e-001
   Na+                   4.792e-001  3.387e-001    -0.319    -0.470    -0.151
   NaSO4-                6.050e-003  4.521e-003    -2.218    -2.345    -0.127
   NaHCO3                1.454e-004  1.698e-004    -3.838    -3.770     0.068
   NaCO3-                5.858e-005  4.377e-005    -4.232    -4.359    -0.127
   NaF                   4.148e-006  4.846e-006    -5.382    -5.315     0.068
   NaOH                  3.117e-007  3.642e-007    -6.506    -6.439     0.068
   NaHPO4-               2.479e-008  1.853e-008    -7.606    -7.732    -0.127
O(0)            4.376e-004
   O2                    2.188e-004  2.556e-004    -3.660    -3.592     0.068
P               6.548e-007
   MgHPO4                2.441e-007  2.852e-007    -6.612    -6.545     0.068
   HPO4-2                1.792e-007  2.805e-008    -6.747    -7.552    -0.805
   MgPO4-                1.495e-007  1.117e-007    -6.825    -6.952    -0.127
   CaHPO4                3.136e-008  3.664e-008    -7.504    -7.436     0.068
   NaHPO4-               2.479e-008  1.853e-008    -7.606    -7.732    -0.127
   CaPO4-                1.925e-008  1.439e-008    -7.715    -7.842    -0.127
   H2PO4-                4.207e-009  2.722e-009    -8.376    -8.565    -0.189
   MgH2PO4+              1.628e-009  1.216e-009    -8.788    -8.915    -0.127
   KHPO4-                4.754e-010  3.552e-010    -9.323    -9.450    -0.127
   CaH2PO4+              2.221e-010  1.660e-010    -9.653    -9.780    -0.127
   PO4-3                 1.361e-010  2.099e-012    -9.866   -11.678    -1.812
   FeHPO4                5.910e-016  6.905e-016   -15.228   -15.161     0.068
   FeH2PO4+              1.129e-017  8.436e-018   -16.947   -17.074    -0.127
   FeHPO4+               2.823e-022  2.110e-022   -21.549   -21.676    -0.127
   FeH2PO4+2             6.566e-023  2.047e-023   -22.183   -22.689    -0.506
S(6)            2.926e-002
   SO4-2                 1.463e-002  2.663e-003    -1.835    -2.575    -0.740
   MgSO4                 7.327e-003  8.561e-003    -2.135    -2.067     0.068
   NaSO4-                6.050e-003  4.521e-003    -2.218    -2.345    -0.127
   CaSO4                 1.084e-003  1.266e-003    -2.965    -2.898     0.068
   KSO4-                 1.626e-004  1.215e-004    -3.789    -3.915    -0.127
   SrSO4                 9.414e-006  1.100e-005    -5.026    -4.959     0.068
   LiSO4-                2.880e-007  2.152e-007    -6.541    -6.667    -0.127
   NH4SO4-               4.154e-008  3.104e-008    -7.382    -7.508    -0.127
   BaSO4                 2.729e-008  3.188e-008    -7.564    -7.496     0.068
   HSO4-                 2.088e-009  1.560e-009    -8.680    -8.807    -0.127
   MnSO4                 2.042e-010  2.386e-010    -9.690    -9.622     0.068
   CaHSO4+               5.980e-011  4.469e-011   -10.223   -10.350    -0.127
   FeSO4                 2.506e-012  2.928e-012   -11.601   -11.533     0.068
   AlSO4+                4.259e-017  3.182e-017   -16.371   -16.497    -0.127
   Al(SO4)2-             3.586e-018  2.680e-018   -17.445   -17.572    -0.127
   FeSO4+                1.092e-018  8.159e-019   -17.962   -18.088    -0.127
   FeHSO4+               1.552e-019  1.160e-019   -18.809   -18.936    -0.127
   Fe(SO4)2-             6.361e-020  4.753e-020   -19.196   -19.323    -0.127
   AlHSO4+2              5.453e-026  1.700e-026   -25.263   -25.769    -0.506
   FeHSO4+2              4.222e-026  1.316e-026   -25.374   -25.881    -0.506
Si              7.383e-005
   H4SiO4                7.111e-005  8.308e-005    -4.148    -4.080     0.068
   H3SiO4-               2.721e-006  2.033e-006    -5.565    -5.692    -0.127
   H2SiO4-2              7.361e-011  2.295e-011   -10.133   -10.639    -0.506
   SiF6-2                1.359e-034  4.236e-035   -33.867   -34.373    -0.506
Sr              9.629e-005
   Sr+2                  8.637e-005  2.118e-005    -4.064    -4.674    -0.610
   SrSO4                 9.414e-006  1.100e-005    -5.026    -4.959     0.068
   SrHCO3+               4.277e-007  2.889e-007    -6.369    -6.539    -0.170
   SrCO3                 8.032e-008  9.384e-008    -7.095    -7.028     0.068
   SrOH+                 2.665e-010  1.768e-010    -9.574    -9.753    -0.178

------------------------------Saturation indices-------------------------------

	Phase               SI log IAP  log KT

	Al(OH)3(a)       -3.59    7.21   10.80  Al(OH)3
	Albite           -1.88  -19.89  -18.00  NaAlSi3O8
	Alunite          -8.94  -10.34   -1.40  KAl3(SO4)2(OH)6
	Anhydrite        -0.84   -5.20   -4.36  CaSO4
	Anorthite        -5.49  -25.20  -19.71  CaAl2Si2O8
	Aragonite         0.55   -7.78   -8.34  CaCO3
	Barite           -0.23  -10.20   -9.97  BaSO4
	Ca-Montmorillonite  -3.59  -48.62  -45.03  Ca0.165Al2.33Si3.67O10(OH)2
	Calcite           0.70   -7.78   -8.48  CaCO3
	Celestite        -0.62   -7.25   -6.63  SrSO4
	Chalcedony       -0.51   -4.06   -3.55  SiO2
	Chlorite(14A)     6.69   75.07   68.38  Mg5Al2Si3O10(OH)8
	Chrysotile        3.36   35.56   32.20  Mg3Si2O5(OH)4
	CO2(g)           -3.44   -4.91   -1.47  CO2
	Dolomite          2.29  -14.80  -17.09  CaMg(CO3)2
	Fe(OH)3(a)        0.19    5.08    4.89  Fe(OH)3
	Fluorite         -1.23  -11.83  -10.60  CaF2
	Gibbsite         -0.90    7.21    8.11  Al(OH)3
	Goethite          6.09    5.09   -1.00  FeOOH
	Gypsum           -0.63   -5.21   -4.58  CaSO4:2H2O
	H2(g)           -33.34  -36.49   -3.15  H2
	H2O(g)           -1.52   -0.01    1.51  H2O
	Halite           -2.50   -0.92    1.58  NaCl
	Hausmannite      -6.30   54.73   61.03  Mn3O4
	Hematite         14.19   10.19   -4.01  Fe2O3
	Hydroxyapatite    0.52   -2.90   -3.42  Ca5(PO4)3OH
	Illite           -2.22  -42.48  -40.27  K0.6Mg0.25Al2.3Si3.5O10(OH)2
	Jarosite-K       -7.52  -16.73   -9.21  KFe3(SO4)2(OH)6
	K-feldspar       -1.03  -21.60  -20.57  KAlSi3O8
	K-mica            2.80   15.50   12.70  KAl3Si3O10(OH)2
	Kaolinite        -1.13    6.31    7.43  Al2Si2O5(OH)4
	Manganite        -1.54   23.80   25.34  MnOOH
	Melanterite     -11.63  -13.84   -2.21  FeSO4:7H2O
	N2(g)            -0.30   -3.56   -3.26  N2
	NH3(g)           -8.84   -7.07    1.77  NH3
	O2(g)            -0.70   -3.59   -2.89  O2
	Pyrochroite      -8.07    7.13   15.20  Mn(OH)2
	Pyrolusite       -0.91   40.47   41.38  MnO2
	Quartz           -0.08   -4.06   -3.98  SiO2
	Rhodochrosite    -3.33  -14.46  -11.13  MnCO3
	Sepiolite         1.16   16.92   15.76  Mg2Si3O7.5OH:3H2O
	Sepiolite(d)     -1.74   16.92   18.66  Mg2Si3O7.5OH:3H2O
	Siderite         -5.48  -16.37  -10.89  FeCO3
	SiO2(a)          -1.35   -4.06   -2.71  SiO2
	Strontianite     -0.56   -9.83   -9.27  SrCO3
	Talc              6.04   27.44   21.40  Mg3Si4O10(OH)2
	Vivianite       -21.05  -57.05  -36.00  Fe3(PO4)2:8H2O
	Witherite        -4.22  -12.78   -8.56  BaCO3

------------------------------------------------------
Beginning of initial surface-composition calculations.
------------------------------------------------------

Surface 1.	

Surf          
	-4.975e-004  Surface charge, eq
	-1.358e-001  sigma, C/m**2
	-5.870e-002  psi, V
	 2.285e+000  -F*psi/RT
	 9.823e+000  exp(-F*psi/RT)
	 1.071e+003  specific area, m**2/g
	 3.534e+002  m**2 for  3.300e-001 g


Surf          
	 1.000e-003  moles
	                                   Mole                     Log
	Species               Moles    Fraction    Molality    Molality

	SurfO-           5.455e-004       0.546  5.455e-004      -3.263
	SurfOH           4.065e-004       0.406  4.065e-004      -3.391
	SurfOH2+         4.800e-005       0.048  4.800e-005      -4.319
	SurfOHMoO4-2     2.599e-013       0.000  2.599e-013     -12.585
	SurfMoO4-        6.247e-014       0.000  6.247e-014     -13.204

-----------------------------------------
Beginning of batch-reaction calculations.
-----------------------------------------

Reaction step 1.

Using solution 1.	Seawater
Using exchange 1.	
Using surface 1.	Surface assemblage after simulation 1.
Using pure phase assemblage 1.	Complete phase assemblage
Using gas phase 1.	
Using temperature 1.	
Using reaction 1.	Reaction test

Reaction 1.	Irreversible reaction defined in simulation 1.

	 5.000e-001 moles of the following reaction have been added:

	                 Relative
	Reactant            moles

	HCl                  1.00000

	                 Relative
	Element             moles
	Cl                   1.00000
	H                    1.00000

-----------------------------------Gas phase-----------------------------------


Total pressure:   1.0000   atmospheres
    Gas volume:  8.15e-001 liters

                                                        Moles in gas
                                            ----------------------------------
Component                log P           P     Initial       Final       Delta

CH4(g)                   -5.79  1.615e-006  4.087e-008  5.380e-008  1.292e-008
CO2(g)                   -0.94  1.140e-001  1.292e-005  3.798e-003  3.785e-003
N2(g)                    -0.05  8.860e-001  3.188e-002  2.952e-002 -2.360e-003
O2(g)                   -67.89  1.299e-068  8.175e-003  0.000e+000 -8.175e-003

-------------------------------Phase assemblage--------------------------------

                                                      Moles in assemblage
Phase                  SI log IAP  log KT      Initial       Final       Delta

Anhydrite           -0.19   -4.55   -4.36   1.000e+000           0 -1.000e+000
Aragonite           -0.14   -8.48   -8.34   2.500e+000           0 -2.500e+000
Calcite              0.00   -8.48   -8.48   1.000e+000  3.871e+000  2.871e+000
Chalcedony           0.00   -3.55   -3.55   2.100e+000  9.989e-002 -2.000e+000
Dolomite             0.00  -17.09  -17.09   1.000e+000  6.737e-001 -3.263e-001
FeS(ppt)             0.00   -3.91   -3.92   1.000e+000  9.642e-001 -3.577e-002
Gibbsite            -0.85    7.26    8.11   2.000e+000           0 -2.000e+000
Goethite            -0.00   -1.00   -1.00   1.000e+000  7.610e-001 -2.390e-001
Gypsum               0.00   -4.58   -4.58   1.000e+000  2.052e+000  1.052e+000
Kaolinite           -0.00    7.43    7.43   5.000e+000  6.000e+000  1.000e+000
Siderite             0.00  -10.89  -10.89   1.000e+000  1.272e+000  2.719e-001
Sulfur              -2.41    2.48    4.88   0.000e+000           0  0.000e+000

------------------------------Surface composition------------------------------

Surf          
	 2.739e-004  Surface charge, eq
	 7.478e-002  sigma, C/m**2
	 2.657e-002  psi, V
	-1.034e+000  -F*psi/RT
	 3.556e-001  exp(-F*psi/RT)
	 1.071e+003  specific area, m**2/g
	 3.534e+002  m**2 for  3.300e-001 g


Surf          
	 1.000e-003  moles
	                                   Mole                     Log
	Species               Moles    Fraction    Molality    Molality

	SurfOH           5.101e-004       0.510  5.171e-004      -3.286
	SurfOH2+         3.819e-004       0.382  3.871e-004      -3.412
	SurfO-           1.080e-004       0.108  1.095e-004      -3.961
	SurfMoO4-        1.488e-010       0.000  1.508e-010      -9.822
	SurfOHMoO4-2     9.638e-011       0.000  9.769e-011     -10.010

-----------------------------Exchange composition------------------------------

X               3.000e+000 mol

	                               Equiv-    Equivalent      Log 
	Species             Moles      alents      Fraction     Gamma

	NaX              9.848e-001  9.848e-001  3.283e-001    -0.131
	CaX2             7.282e-001  1.456e+000  4.855e-001    -0.589
	MgX2             2.708e-001  5.416e-001  1.805e-001    -0.490
	KX               9.605e-003  9.605e-003  3.202e-003    -0.234
	NH4X             3.991e-003  3.991e-003  1.330e-003    -0.305
	FeX2             1.683e-003  3.365e-003  1.122e-003    -0.723
	SrX2             8.039e-005  1.608e-004  5.359e-005    -0.623
	LiX              1.679e-005  1.679e-005  5.595e-006    -0.181
	BaX2             1.259e-007  2.518e-007  8.392e-008    -0.818
	MnX2             2.076e-009  4.153e-009  1.384e-009    -0.723
	AlOHX2           1.894e-009  3.789e-009  1.263e-009    -0.253
	AlX3             2.668e-010  8.004e-010  2.668e-010    -1.205

-----------------------------Solution composition------------------------------

	Elements           Molality       Moles

	Al               4.444e-008  4.385e-008
	B                2.376e-003  2.344e-003
	Ba               2.540e-008  2.506e-008
	Br               8.849e-004  8.730e-004
	C                7.811e-003  7.706e-003
	Ca               1.883e-001  1.858e-001
	Cl               1.080e+000  1.066e+000
	F                7.687e-005  7.583e-005
	Fe               1.200e-003  1.184e-003
	K                9.874e-004  9.741e-004
	Li               1.039e-005  1.025e-005
	Mg               1.121e-001  1.106e-001
	Mn               1.720e-009  1.697e-009
	Mo               6.280e-009  6.195e-009
	N                1.225e-003  1.208e-003
	Na               5.075e-001  5.007e-001
	P                6.637e-007  6.548e-007
	S                1.336e-002  1.318e-002
	Si               1.911e-004  1.885e-004
	Sr               1.612e-005  1.590e-005

----------------------------Description of solution----------------------------

                                       pH  =   5.977      Charge balance
                                       pe  =  -2.144      Adjusted to redox equilibrium
       Specific Conductance (uS/cm, 25 oC) = 77493
                          Density (g/cm3)  =   1.04252
                        Activity of water  =   0.968
                           Ionic strength  =  1.389e+000
                       Mass of water (kg)  =  9.866e-001
                 Total alkalinity (eq/kg)  =  5.002e-003
                       Total CO2 (mol/kg)  =  7.811e-003
                      Temperature (deg C)  =  25.000
                  Electrical balance (eq)  = -7.071e-004
 Percent error, 100*(Cat-|An|)/(Cat+|An|)  =  -0.03
                               Iterations  =  16
                                  Total H  = 1.095361e+002
                                  Total O  = 5.484150e+001

----------------------------Distribution of species----------------------------

                                                   Log       Log         Log 
   Species                 Molality    Activity  Molality  Activity     Gamma

   H+                    1.436e-006  1.055e-006    -5.843    -5.977    -0.134
   OH-                   1.651e-008  9.180e-009    -7.782    -8.037    -0.255
   H2O                   5.551e+001  9.676e-001     1.744    -0.014     0.000
Al              4.444e-008
   AlF2+                 3.113e-008  2.691e-008    -7.507    -7.570    -0.063
   AlF+2                 6.388e-009  3.567e-009    -8.195    -8.448    -0.253
   AlF3                  3.704e-009  5.100e-009    -8.431    -8.292     0.139
   Al(OH)2+              1.794e-009  1.551e-009    -8.746    -8.809    -0.063
   Al(OH)4-              4.190e-010  3.622e-010    -9.378    -9.441    -0.063
   AlOH+2                3.865e-010  2.158e-010    -9.413    -9.666    -0.253
   Al+3                  3.801e-010  2.369e-011    -9.420   -10.625    -1.205
   Al(OH)3               1.522e-010  2.096e-010    -9.818    -9.679     0.139
   AlSO4+                5.159e-011  4.460e-011   -10.287   -10.351    -0.063
   AlF4-                 3.536e-011  3.057e-011   -10.452   -10.515    -0.063
   Al(SO4)2-             9.710e-013  8.394e-013   -12.013   -12.076    -0.063
   AlF5-2                1.306e-014  7.293e-015   -13.884   -14.137    -0.253
   AlHSO4+2              7.473e-018  4.173e-018   -17.127   -17.380    -0.253
   AlF6-3                4.073e-019  1.098e-019   -18.390   -18.959    -0.569
B               2.376e-003
   H3BO3                 2.374e-003  3.269e-003    -2.624    -2.486     0.139
   H2BO3-                2.062e-006  1.783e-006    -5.686    -5.749    -0.063
   BF(OH)3-              2.266e-008  1.959e-008    -7.645    -7.708    -0.063
   BF2(OH)2-             3.987e-011  3.446e-011   -10.399   -10.463    -0.063
   BF3OH-                7.177e-016  6.204e-016   -15.144   -15.207    -0.063
   BF4-                  4.800e-020  4.149e-020   -19.319   -19.382    -0.063
Ba              2.540e-008
   Ba+2                  2.453e-008  3.728e-009    -7.610    -8.429    -0.818
   BaSO4                 8.076e-010  1.112e-009    -9.093    -8.954     0.139
   BaHCO3+               6.542e-011  5.655e-011   -10.184   -10.248    -0.063
   BaCO3                 9.837e-014  1.355e-013   -13.007   -12.868     0.139
   BaOH+                 1.340e-016  1.158e-016   -15.873   -15.936    -0.063
Br              8.849e-004
   Br-                   8.849e-004  4.667e-004    -3.053    -3.331    -0.278
C(-4)           1.619e-009
   CH4                   1.619e-009  2.229e-009    -8.791    -8.652     0.139
C(4)            7.811e-003
   CO2                   2.818e-003  3.880e-003    -2.550    -2.411     0.139
   HCO3-                 2.476e-003  1.583e-003    -2.606    -2.801    -0.194
   CaHCO3+               1.488e-003  9.510e-004    -2.828    -3.022    -0.194
   MgHCO3+               7.473e-004  6.460e-004    -3.126    -3.190    -0.063
   NaHCO3                2.416e-004  3.327e-004    -3.617    -3.478     0.139
   FeHCO3+               3.353e-005  2.899e-005    -4.475    -4.538    -0.063
   CaCO3                 4.041e-006  5.565e-006    -5.393    -5.255     0.139
   MgCO3                 1.700e-006  2.341e-006    -5.769    -5.631     0.139
   NaCO3-                5.664e-007  4.896e-007    -6.247    -6.310    -0.063
   CO3-2                 4.211e-007  7.033e-008    -6.376    -7.153    -0.777
   FeCO3                 2.244e-007  3.090e-007    -6.649    -6.510     0.139
   SrHCO3+               1.413e-007  9.034e-008    -6.850    -7.044    -0.194
   SrCO3                 1.217e-010  1.676e-010    -9.915    -9.776     0.139
   BaHCO3+               6.542e-011  5.655e-011   -10.184   -10.248    -0.063
   MnHCO3+               3.067e-011  2.651e-011   -10.513   -10.577    -0.063
   MnCO3                 7.627e-013  1.050e-012   -12.118   -11.979     0.139
   BaCO3                 9.837e-014  1.355e-013   -13.007   -12.868     0.139
Ca              1.883e-001
   Ca+2                  1.828e-001  4.710e-002    -0.738    -1.327    -0.589
   CaSO4                 4.062e-003  5.593e-003    -2.391    -2.252     0.139
   CaHCO3+               1.488e-003  9.510e-004    -2.828    -3.022    -0.194
   CaF+                  7.144e-006  6.175e-006    -5.146    -5.209    -0.063
   CaCO3                 4.041e-006  5.565e-006    -5.393    -5.255     0.139
   CaH2PO4+              1.270e-007  1.098e-007    -6.896    -6.959    -0.063
   CaHPO4                1.005e-007  1.385e-007    -6.998    -6.859     0.139
   CaHSO4+               4.000e-008  3.458e-008    -7.398    -7.461    -0.063
   CaOH+                 8.291e-009  7.167e-009    -8.081    -8.145    -0.063
   CaMoO4                1.915e-009  2.637e-009    -8.718    -8.579     0.139
   CaPO4-                3.591e-010  3.104e-010    -9.445    -9.508    -0.063
Cl              1.080e+000
   Cl-                   1.080e+000  6.300e-001     0.033    -0.201    -0.234
   FeCl+                 1.843e-004  1.593e-004    -3.735    -3.798    -0.063
   MnCl+                 5.581e-010  4.824e-010    -9.253    -9.317    -0.063
   MnCl2                 9.635e-011  1.327e-010   -10.016    -9.877     0.139
   MnCl3-                2.663e-011  2.302e-011   -10.575   -10.638    -0.063
   FeCl2+                7.773e-018  6.719e-018   -17.109   -17.173    -0.063
   FeCl+2                4.276e-018  2.388e-018   -17.369   -17.622    -0.253
   FeCl3                 3.074e-019  4.233e-019   -18.512   -18.373     0.139
F               7.687e-005
   MgF+                  4.014e-005  3.470e-005    -4.396    -4.460    -0.063
   F-                    2.708e-005  1.505e-005    -4.567    -4.822    -0.255
   CaF+                  7.144e-006  6.175e-006    -5.146    -5.209    -0.063
   NaF                   2.352e-006  3.239e-006    -5.629    -5.490     0.139
   FeF+                  3.190e-008  2.757e-008    -7.496    -7.560    -0.063
   AlF2+                 3.113e-008  2.691e-008    -7.507    -7.570    -0.063
   BF(OH)3-              2.266e-008  1.959e-008    -7.645    -7.708    -0.063
   HF                    1.730e-008  2.382e-008    -7.762    -7.623     0.139
   AlF+2                 6.388e-009  3.567e-009    -8.195    -8.448    -0.253
   AlF3                  3.704e-009  5.100e-009    -8.431    -8.292     0.139
   BF2(OH)2-             3.987e-011  3.446e-011   -10.399   -10.463    -0.063
   AlF4-                 3.536e-011  3.057e-011   -10.452   -10.515    -0.063
   HF2-                  1.592e-012  1.376e-012   -11.798   -11.861    -0.063
   MnF+                  2.265e-014  1.958e-014   -13.645   -13.708    -0.063
   AlF5-2                1.306e-014  7.293e-015   -13.884   -14.137    -0.253
   BF3OH-                7.177e-016  6.204e-016   -15.144   -15.207    -0.063
   FeF+2                 5.362e-018  2.994e-018   -17.271   -17.524    -0.253
   FeF2+                 2.076e-018  1.794e-018   -17.683   -17.746    -0.063
   AlF6-3                4.073e-019  1.098e-019   -18.390   -18.959    -0.569
   BF4-                  4.800e-020  4.149e-020   -19.319   -19.382    -0.063
   FeF3                  3.109e-020  4.281e-020   -19.507   -19.368     0.139
   SiF6-2                1.174e-026  6.555e-027   -25.930   -26.183    -0.253
Fe(2)           1.200e-003
   Fe+2                  9.676e-004  1.832e-004    -3.014    -3.737    -0.723
   FeCl+                 1.843e-004  1.593e-004    -3.735    -3.798    -0.063
   FeHCO3+               3.353e-005  2.899e-005    -4.475    -4.538    -0.063
   FeSO4                 1.408e-005  1.939e-005    -4.851    -4.713     0.139
   FeCO3                 2.244e-007  3.090e-007    -6.649    -6.510     0.139
   FeOH+                 6.144e-008  5.311e-008    -7.212    -7.275    -0.063
   Fe(HS)2               5.820e-008  8.014e-008    -7.235    -7.096     0.139
   FeF+                  3.190e-008  2.757e-008    -7.496    -7.560    -0.063
   FeH2PO4+              9.677e-009  8.365e-009    -8.014    -8.078    -0.063
   FeHPO4                2.839e-009  3.910e-009    -8.547    -8.408     0.139
   FeHSO4+               1.556e-010  1.345e-010    -9.808    -9.871    -0.063
   Fe(HS)3-              7.074e-012  6.115e-012   -11.150   -11.214    -0.063
Fe(3)           2.817e-013
   Fe(OH)2+              2.610e-013  2.256e-013   -12.583   -12.647    -0.063
   Fe(OH)3               1.935e-014  2.665e-014   -13.713   -13.574     0.139
   FeOH+2                1.331e-015  7.430e-016   -14.876   -15.129    -0.253
   Fe(OH)4-              2.578e-017  2.229e-017   -16.589   -16.652    -0.063
   FeCl2+                7.773e-018  6.719e-018   -17.109   -17.173    -0.063
   FeF+2                 5.362e-018  2.994e-018   -17.271   -17.524    -0.253
   FeCl+2                4.276e-018  2.388e-018   -17.369   -17.622    -0.253
   FeF2+                 2.076e-018  1.794e-018   -17.683   -17.746    -0.063
   Fe+3                  2.013e-018  1.255e-019   -17.696   -18.901    -1.205
   FeSO4+                9.475e-019  8.191e-019   -18.023   -18.087    -0.063
   FeCl3                 3.074e-019  4.233e-019   -18.512   -18.373     0.139
   FeF3                  3.109e-020  4.281e-020   -19.507   -19.368     0.139
   Fe(SO4)2-             1.234e-020  1.067e-020   -19.909   -19.972    -0.063
   FeH2PO4+2             5.512e-021  3.078e-021   -20.259   -20.512    -0.253
   FeHPO4+               2.095e-022  1.811e-022   -21.679   -21.742    -0.063
   FeHSO4+2              4.145e-024  2.314e-024   -23.383   -23.636    -0.253
   Fe2(OH)2+4            1.528e-028  1.486e-029   -27.816   -28.828    -1.012
   Fe3(OH)4+5            2.673e-038  7.004e-040   -37.573   -39.155    -1.582
H(0)            2.224e-011
   H2                    1.112e-011  1.531e-011   -10.954   -10.815     0.139
K               9.874e-004
   K+                    9.846e-004  5.743e-004    -3.007    -3.241    -0.234
   KSO4-                 2.778e-006  2.402e-006    -5.556    -5.619    -0.063
   KHPO4-                6.945e-012  6.004e-012   -11.158   -11.222    -0.063
   KOH                   1.326e-012  1.826e-012   -11.877   -11.739     0.139
Li              1.039e-005
   Li+                   1.037e-005  6.839e-006    -4.984    -5.165    -0.181
   LiSO4-                2.056e-008  1.777e-008    -7.687    -7.750    -0.063
   LiOH                  1.043e-013  1.437e-013   -12.982   -12.843     0.139
Mg              1.121e-001
   Mg+2                  1.077e-001  3.489e-002    -0.968    -1.457    -0.490
   MgSO4                 3.535e-003  4.868e-003    -2.452    -2.313     0.139
   MgHCO3+               7.473e-004  6.460e-004    -3.126    -3.190    -0.063
   MgF+                  4.014e-005  3.470e-005    -4.396    -4.460    -0.063
   MgCO3                 1.700e-006  2.341e-006    -5.769    -5.631     0.139
   MgOH+                 1.344e-007  1.161e-007    -6.872    -6.935    -0.063
   MgH2PO4+              1.198e-007  1.036e-007    -6.921    -6.985    -0.063
   MgHPO4                1.007e-007  1.387e-007    -6.997    -6.858     0.139
   MgMoO4                4.091e-009  5.634e-009    -8.388    -8.249     0.139
   MgPO4-                3.588e-010  3.102e-010    -9.445    -9.508    -0.063
Mn(2)           1.720e-009
   Mn+2                  9.931e-010  1.880e-010    -9.003    -9.726    -0.723
   MnCl+                 5.581e-010  4.824e-010    -9.253    -9.317    -0.063
   MnCl2                 9.635e-011  1.327e-010   -10.016    -9.877     0.139
   MnHCO3+               3.067e-011  2.651e-011   -10.513   -10.577    -0.063
   MnCl3-                2.663e-011  2.302e-011   -10.575   -10.638    -0.063
   MnSO4                 1.445e-011  1.990e-011   -10.840   -10.701     0.139
   MnCO3                 7.627e-013  1.050e-012   -12.118   -11.979     0.139
   MnF+                  2.265e-014  1.958e-014   -13.645   -13.708    -0.063
   MnOH+                 5.125e-015  4.431e-015   -14.290   -14.354    -0.063
   Mn(NO3)2              0.000e+000  0.000e+000  -169.465  -169.326     0.139
Mn(3)           1.546e-037
   Mn+3                  1.546e-037  4.168e-038   -36.811   -37.380    -0.569
Mo              6.280e-009
   MgMoO4                4.091e-009  5.634e-009    -8.388    -8.249     0.139
   CaMoO4                1.915e-009  2.637e-009    -8.718    -8.579     0.139
   MoO4-2                2.699e-010  1.507e-010    -9.569    -9.822    -0.253
   HMoO4-                3.197e-012  2.764e-012   -11.495   -11.559    -0.063
   H2MoO4                8.628e-016  1.188e-015   -15.064   -14.925     0.139
N(-3)           5.174e-004
   NH4+                  5.150e-004  2.551e-004    -3.288    -3.593    -0.305
   NH4SO4-               2.263e-006  1.956e-006    -5.645    -5.709    -0.063
   NH3                   1.000e-007  1.378e-007    -7.000    -6.861     0.139
N(0)            7.072e-004
   N2                    3.536e-004  4.869e-004    -3.451    -3.313     0.139
N(3)            0.000e+000
   NO2-                  0.000e+000  0.000e+000   -58.903   -59.181    -0.278
N(5)            0.000e+000
   NO3-                  0.000e+000  0.000e+000   -79.822   -80.100    -0.278
   Mn(NO3)2              0.000e+000  0.000e+000  -169.465  -169.326     0.139
Na              5.075e-001
   Na+                   5.060e-001  3.739e-001    -0.296    -0.427    -0.131
   NaSO4-                1.290e-003  1.115e-003    -2.889    -2.953    -0.063
   NaHCO3                2.416e-004  3.327e-004    -3.617    -3.478     0.139
   NaF                   2.352e-006  3.239e-006    -5.629    -5.490     0.139
   NaCO3-                5.664e-007  4.896e-007    -6.247    -6.310    -0.063
   NaHPO4-               4.521e-009  3.908e-009    -8.345    -8.408    -0.063
   NaOH                  1.645e-009  2.265e-009    -8.784    -8.645     0.139
O(0)            0.000e+000
   O2                    0.000e+000  0.000e+000   -70.918   -70.779     0.139
P               6.637e-007
   H2PO4-                1.509e-007  9.113e-008    -6.821    -7.040    -0.219
   CaH2PO4+              1.270e-007  1.098e-007    -6.896    -6.959    -0.063
   MgH2PO4+              1.198e-007  1.036e-007    -6.921    -6.985    -0.063
   MgHPO4                1.007e-007  1.387e-007    -6.997    -6.858     0.139
   CaHPO4                1.005e-007  1.385e-007    -6.998    -6.859     0.139
   HPO4-2                4.696e-008  5.362e-009    -7.328    -8.271    -0.942
   FeH2PO4+              9.677e-009  8.365e-009    -8.014    -8.078    -0.063
   NaHPO4-               4.521e-009  3.908e-009    -8.345    -8.408    -0.063
   FeHPO4                2.839e-009  3.910e-009    -8.547    -8.408     0.139
   CaPO4-                3.591e-010  3.104e-010    -9.445    -9.508    -0.063
   MgPO4-                3.588e-010  3.102e-010    -9.445    -9.508    -0.063
   KHPO4-                6.945e-012  6.004e-012   -11.158   -11.222    -0.063
   PO4-3                 3.023e-013  2.291e-015   -12.520   -14.640    -2.120
   FeH2PO4+2             5.512e-021  3.078e-021   -20.259   -20.512    -0.253
   FeHPO4+               2.095e-022  1.811e-022   -21.679   -21.742    -0.063
S(-2)           6.072e-006
   H2S                   4.695e-006  6.465e-006    -5.328    -5.189     0.139
   HS-                   1.260e-006  7.007e-007    -5.900    -6.154    -0.255
   Fe(HS)2               5.820e-008  8.014e-008    -7.235    -7.096     0.139
   Fe(HS)3-              7.074e-012  6.115e-012   -11.150   -11.214    -0.063
   S-2                   5.277e-013  8.020e-014   -12.278   -13.096    -0.818
S(6)            1.336e-002
   SO4-2                 4.451e-003  5.952e-004    -2.352    -3.225    -0.874
   CaSO4                 4.062e-003  5.593e-003    -2.391    -2.252     0.139
   MgSO4                 3.535e-003  4.868e-003    -2.452    -2.313     0.139
   NaSO4-                1.290e-003  1.115e-003    -2.889    -2.953    -0.063
   FeSO4                 1.408e-005  1.939e-005    -4.851    -4.713     0.139
   KSO4-                 2.778e-006  2.402e-006    -5.556    -5.619    -0.063
   NH4SO4-               2.263e-006  1.956e-006    -5.645    -5.709    -0.063
   SrSO4                 3.145e-007  4.331e-007    -6.502    -6.363     0.139
   HSO4-                 7.064e-008  6.107e-008    -7.151    -7.214    -0.063
   CaHSO4+               4.000e-008  3.458e-008    -7.398    -7.461    -0.063
   LiSO4-                2.056e-008  1.777e-008    -7.687    -7.750    -0.063
   BaSO4                 8.076e-010  1.112e-009    -9.093    -8.954     0.139
   FeHSO4+               1.556e-010  1.345e-010    -9.808    -9.871    -0.063
   AlSO4+                5.159e-011  4.460e-011   -10.287   -10.351    -0.063
   MnSO4                 1.445e-011  1.990e-011   -10.840   -10.701     0.139
   Al(SO4)2-             9.710e-013  8.394e-013   -12.013   -12.076    -0.063
   AlHSO4+2              7.473e-018  4.173e-018   -17.127   -17.380    -0.253
   FeSO4+                9.475e-019  8.191e-019   -18.023   -18.087    -0.063
   Fe(SO4)2-             1.234e-020  1.067e-020   -19.909   -19.972    -0.063
   FeHSO4+2              4.145e-024  2.314e-024   -23.383   -23.636    -0.253
Si              1.911e-004
   H4SiO4                1.910e-004  2.631e-004    -3.719    -3.580     0.139
   H3SiO4-               4.252e-008  3.676e-008    -7.371    -7.435    -0.063
   H2SiO4-2              4.243e-015  2.370e-015   -14.372   -14.625    -0.253
   SiF6-2                1.174e-026  6.555e-027   -25.930   -26.183    -0.253
Sr              1.612e-005
   Sr+2                  1.566e-005  3.732e-006    -4.805    -5.428    -0.623
   SrSO4                 3.145e-007  4.331e-007    -6.502    -6.363     0.139
   SrHCO3+               1.413e-007  9.034e-008    -6.850    -7.044    -0.194
   SrCO3                 1.217e-010  1.676e-010    -9.915    -9.776     0.139
   SrOH+                 2.811e-013  1.755e-013   -12.551   -12.756    -0.205

------------------------------Saturation indices-------------------------------

	Phase               SI log IAP  log KT

	Al(OH)3(a)       -3.54    7.26   10.80  Al(OH)3
	Albite           -2.49  -20.49  -18.00  NaAlSi3O8
	Alunite          -4.39   -5.79   -1.40  KAl3(SO4)2(OH)6
	Anhydrite        -0.19   -4.55   -4.36  CaSO4
	Anorthite        -7.54  -27.25  -19.71  CaAl2Si2O8
	Aragonite        -0.14   -8.48   -8.34  CaCO3
	Barite           -1.68  -11.65   -9.97  BaSO4
	Ca-Montmorillonite  -2.11  -47.14  -45.03  Ca0.165Al2.33Si3.67O10(OH)2
	Calcite           0.00   -8.48   -8.48  CaCO3
	Celestite        -2.02   -8.65   -6.63  SrSO4
	CH4(g)           -5.79   -8.65   -2.86  CH4
	Chalcedony        0.00   -3.55   -3.55  SiO2
	Chlorite(14A)   -12.12   56.26   68.38  Mg5Al2Si3O10(OH)8
	Chrysotile       -7.89   24.31   32.20  Mg3Si2O5(OH)4
	CO2(g)           -0.94   -2.41   -1.47  CO2
	Dolomite          0.00  -17.09  -17.09  CaMg(CO3)2
	Fe(OH)3(a)       -5.91   -1.01    4.89  Fe(OH)3
	FeS(ppt)          0.00   -3.91   -3.92  FeS
	Fluorite         -0.37  -10.97  -10.60  CaF2
	Gibbsite         -0.85    7.26    8.11  Al(OH)3
	Goethite         -0.00   -1.00   -1.00  FeOOH
	Gypsum            0.00   -4.58   -4.58  CaSO4:2H2O
	H2(g)            -7.66  -10.81   -3.15  H2
	H2O(g)           -1.52   -0.01    1.51  H2O
	H2S(g)           -4.19   -5.19   -1.00  H2S
	Halite           -2.21   -0.63    1.58  NaCl
	Hausmannite     -46.74   14.29   61.03  Mn3O4
	Hematite          2.02   -1.99   -4.01  Fe2O3
	Hydroxyapatite   -4.13   -7.55   -3.42  Ca5(PO4)3OH
	Illite           -3.30  -43.57  -40.27  K0.6Mg0.25Al2.3Si3.5O10(OH)2
	Jarosite-K      -21.41  -30.62   -9.21  KFe3(SO4)2(OH)6
	K-feldspar       -2.73  -23.31  -20.57  KAlSi3O8
	K-mica            1.21   13.91   12.70  KAl3Si3O10(OH)2
	Kaolinite        -0.00    7.43    7.43  Al2Si2O5(OH)4
	Mackinawite       0.73   -3.91   -4.65  FeS
	Manganite       -19.31    6.03   25.34  MnOOH
	Melanterite      -4.85   -7.06   -2.21  FeSO4:7H2O
	N2(g)            -0.05   -3.31   -3.26  N2
	NH3(g)           -8.63   -6.86    1.77  NH3
	O2(g)           -67.89  -70.78   -2.89  O2
	Pyrite           10.10   -8.38  -18.48  FeS2
	Pyrochroite     -13.00    2.20   15.20  Mn(OH)2
	Pyrolusite      -31.52    9.86   41.38  MnO2
	Quartz            0.43   -3.55   -3.98  SiO2
	Rhodochrosite    -5.75  -16.88  -11.13  MnCO3
	Sepiolite        -5.50   10.26   15.76  Mg2Si3O7.5OH:3H2O
	Sepiolite(d)     -8.40   10.26   18.66  Mg2Si3O7.5OH:3H2O
	Siderite          0.00  -10.89  -10.89  FeCO3
	SiO2(a)          -0.84   -3.55   -2.71  SiO2
	Strontianite     -3.31  -12.58   -9.27  SrCO3
	Sulfur           -2.41    2.48    4.88  S
	Talc             -4.17   17.23   21.40  Mg3Si4O10(OH)2
	Vivianite        -4.61  -40.61  -36.00  Fe3(PO4)2:8H2O
	Witherite        -7.02  -15.58   -8.56  BaCO3

Reaction step 2.

Using solution 1.	Seawater
Using exchange 1.	
Using surface 1.	Surface assemblage after simulation 1.
Using pure phase assemblage 1.	Complete phase assemblage
Using gas phase 1.	
Using temperature 1.	
Using reaction 1.	Reaction test

Reaction 1.	Irreversible reaction defined in simulation 1.

	 1.000e+000 moles of the following reaction have been added:

	                 Relative
	Reactant            moles

	HCl                  1.00000

	                 Relative
	Element             moles
	Cl                   1.00000
	H                    1.00000

-----------------------------------Gas phase-----------------------------------


Total pressure:   1.0000   atmospheres
    Gas volume:  9.87e-001 liters

                                                        Moles in gas
                                            ----------------------------------
Component                log P           P     Initial       Final       Delta

CH4(g)                   -5.42  3.816e-006  4.087e-008  1.489e-007  1.080e-007
CO2(g)                   -0.62  2.410e-001  1.292e-005  9.404e-003  9.391e-003
N2(g)                    -0.12  7.590e-001  3.188e-002  2.961e-002 -2.269e-003
O2(g)                   -65.33  4.714e-066  8.175e-003  0.000e+000 -8.175e-003

-------------------------------Phase assemblage--------------------------------

                                                      Moles in assemblage
Phase                  SI log IAP  log KT      Initial       Final       Delta

Anhydrite           -0.13   -4.55   -4.42   1.000e+000           0 -1.000e+000
Aragonite           -0.14   -8.54   -8.41   2.500e+000           0 -2.500e+000
Calcite              0.00   -8.54   -8.54   1.000e+000  3.585e+000  2.585e+000
Chalcedony           0.00   -3.44   -3.44   2.100e+000  9.987e-002 -2.000e+000
Dolomite             0.00  -17.31  -17.31   1.000e+000  6.774e-001 -3.226e-001
FeS(ppt)             0.00   -3.91   -3.92   1.000e+000  9.339e-001 -6.612e-002
Gibbsite            -0.84    6.73    7.57   2.000e+000           0 -2.000e+000
Goethite            -0.00   -1.34   -1.34   1.000e+000  5.184e-001 -4.816e-001
Gypsum               0.00   -4.59   -4.59   1.000e+000  2.085e+000  1.085e+000
Kaolinite            0.00    6.60    6.60   5.000e+000  6.000e+000  1.000e+000
Siderite             0.00  -10.95  -10.95   1.000e+000  1.543e+000  5.428e-001
Sulfur              -2.26    2.40    4.66   0.000e+000           0  0.000e+000

------------------------------Surface composition------------------------------

Surf          
	 4.623e-004  Surface charge, eq
	 1.262e-001  sigma, C/m**2
	 3.613e-002  psi, V
	-1.361e+000  -F*psi/RT
	 2.565e-001  exp(-F*psi/RT)
	 1.071e+003  specific area, m**2/g
	 3.534e+002  m**2 for  3.300e-001 g


Surf          
	 1.000e-003  moles
	                                   Mole                     Log
	Species               Moles    Fraction    Molality    Molality

	SurfOH2+         5.179e-004       0.518  5.221e-004      -3.282
	SurfOH           4.264e-004       0.426  4.298e-004      -3.367
	SurfO-           5.564e-005       0.056  5.609e-005      -4.251
	SurfMoO4-        2.615e-010       0.000  2.636e-010      -9.579
	SurfOHMoO4-2     1.030e-010       0.000  1.038e-010      -9.984

-----------------------------Exchange composition------------------------------

X               3.000e+000 mol

	                               Equiv-    Equivalent      Log 
	Species             Moles      alents      Fraction     Gamma

	NaX              8.824e-001  8.824e-001  2.941e-001    -0.102
	CaX2             8.225e-001  1.645e+000  5.483e-001    -0.542
	MgX2             2.275e-001  4.551e-001  1.517e-001    -0.412
	KX               9.245e-003  9.245e-003  3.082e-003    -0.249
	NH4X             3.857e-003  3.857e-003  1.286e-003    -0.341
	FeX2             2.195e-003  4.391e-003  1.464e-003    -0.776
	SrX2             7.244e-005  1.449e-004  4.829e-005    -0.602
	LiX              1.497e-005  1.497e-005  4.989e-006    -0.194
	BaX2             1.134e-007  2.268e-007  7.559e-008    -0.885
	MnX2             1.486e-009  2.971e-009  9.904e-010    -0.776
	AlOHX2           1.450e-009  2.899e-009  9.664e-010     0.067
	AlX3             4.502e-010  1.351e-009  4.502e-010    -1.274

-----------------------------Solution composition------------------------------

	Elements           Molality       Moles

	Al               6.533e-008  6.481e-008
	B                2.363e-003  2.344e-003
	Ba               3.786e-008  3.756e-008
	Br               8.800e-004  8.730e-004
	C                9.955e-003  9.876e-003
	Ca               3.435e-001  3.408e-001
	Cl               1.578e+000  1.566e+000
	F                7.644e-005  7.583e-005
	Fe               2.772e-003  2.750e-003
	K                1.344e-003  1.334e-003
	Li               1.216e-005  1.207e-005
	Mg               1.513e-001  1.501e-001
	Mn               2.306e-009  2.288e-009
	Mo               6.125e-009  6.076e-009
	N                1.169e-003  1.160e-003
	Na               6.079e-001  6.031e-001
	P                6.600e-007  6.548e-007
	S                1.041e-002  1.033e-002
	Si               2.054e-004  2.038e-004
	Sr               2.404e-005  2.385e-005

----------------------------Description of solution----------------------------

                                       pH  =   5.625      Charge balance
                                       pe  =  -1.967      Adjusted to redox equilibrium
       Specific Conductance (uS/cm, 35 oC) = 122389
                          Density (g/cm3)  =   1.05832
                        Activity of water  =   0.954
                           Ionic strength  =  2.076e+000
                       Mass of water (kg)  =  9.920e-001
                 Total alkalinity (eq/kg)  =  5.999e-003
                       Total CO2 (mol/kg)  =  9.955e-003
                      Temperature (deg C)  =  35.000
                  Electrical balance (eq)  = -8.955e-004
 Percent error, 100*(Cat-|An|)/(Cat+|An|)  =  -0.03
                               Iterations  =  19
                                  Total H  = 1.101462e+002
                                  Total O  = 5.513968e+001

----------------------------Distribution of species----------------------------

                                                   Log       Log         Log 
   Species                 Molality    Activity  Molality  Activity     Gamma

   H+                    3.287e-006  2.373e-006    -5.483    -5.625    -0.142
   OH-                   1.575e-008  8.256e-009    -7.803    -8.083    -0.280
   H2O                   5.551e+001  9.541e-001     1.744    -0.020     0.000
Al              6.533e-008
   AlF2+                 4.654e-008  4.838e-008    -7.332    -7.315     0.017
   AlF+2                 7.648e-009  8.929e-009    -8.116    -8.049     0.067
   Al(OH)2+              4.269e-009  4.437e-009    -8.370    -8.353     0.017
   AlF3                  3.920e-009  6.322e-009    -8.407    -8.199     0.208
   Al+3                  1.539e-009  8.197e-011    -8.813   -10.086    -1.274
   AlOH+2                5.302e-010  6.190e-010    -9.276    -9.208     0.067
   Al(OH)4-              4.482e-010  4.659e-010    -9.348    -9.332     0.017
   Al(OH)3               3.238e-010  5.222e-010    -9.490    -9.282     0.208
   AlSO4+                8.274e-011  8.600e-011   -10.082   -10.065     0.017
   AlF4-                 2.494e-011  2.593e-011   -10.603   -10.586     0.017
   Al(SO4)2-             8.010e-013  8.326e-013   -12.096   -12.080     0.017
   AlF5-2                3.548e-015  4.142e-015   -14.450   -14.383     0.067
   AlHSO4+2              1.715e-017  2.003e-017   -16.766   -16.698     0.067
   AlF6-3                2.480e-020  3.513e-020   -19.606   -19.454     0.151
B               2.363e-003
   H3BO3                 2.362e-003  3.809e-003    -2.627    -2.419     0.208
   H2BO3-                1.060e-006  1.102e-006    -5.975    -5.958     0.017
   BF(OH)3-              1.660e-008  1.725e-008    -7.780    -7.763     0.017
   BF2(OH)2-             4.489e-011  4.666e-011   -10.348   -10.331     0.017
   BF3OH-                1.054e-015  1.096e-015   -14.977   -14.960     0.017
   BF4-                  1.084e-019  1.127e-019   -18.965   -18.948     0.017
Ba              3.786e-008
   Ba+2                  3.734e-008  4.867e-009    -7.428    -8.313    -0.885
   BaSO4                 4.427e-010  7.140e-010    -9.354    -9.146     0.208
   BaHCO3+               7.733e-011  8.038e-011   -10.112   -10.095     0.017
   BaCO3                 5.650e-014  9.112e-014   -13.248   -13.040     0.208
   BaOH+                 6.379e-017  6.631e-017   -16.195   -16.178     0.017
Br              8.800e-004
   Br-                   8.800e-004  4.331e-004    -3.056    -3.363    -0.308
C(-4)           2.715e-009
   CH4                   2.715e-009  4.379e-009    -8.566    -8.359     0.208
C(4)            9.955e-003
   CO2                   3.961e-003  6.389e-003    -2.402    -2.195     0.208
   CaHCO3+               2.841e-003  1.754e-003    -2.547    -2.756    -0.209
   HCO3-                 2.037e-003  1.258e-003    -2.691    -2.900    -0.209
   MgHCO3+               8.534e-004  8.871e-004    -3.069    -3.052     0.017
   NaHCO3                2.106e-004  3.396e-004    -3.677    -3.469     0.208
   FeHCO3+               4.590e-005  4.771e-005    -4.338    -4.321     0.017
   CaCO3                 3.762e-006  6.067e-006    -5.425    -5.217     0.208
   MgCO3                 1.168e-006  1.883e-006    -5.933    -5.725     0.208
   NaCO3-                4.154e-007  4.318e-007    -6.382    -6.365     0.017
   SrHCO3+               2.581e-007  1.593e-007    -6.588    -6.798    -0.209
   CO3-2                 2.040e-007  2.965e-008    -6.690    -7.528    -0.838
   FeCO3                 1.673e-007  2.698e-007    -6.777    -6.569     0.208
   SrCO3                 9.272e-011  1.495e-010   -10.033    -9.825     0.208
   BaHCO3+               7.733e-011  8.038e-011   -10.112   -10.095     0.017
   MnHCO3+               2.303e-011  2.393e-011   -10.638   -10.621     0.017
   MnCO3                 3.118e-013  5.028e-013   -12.506   -12.299     0.208
   BaCO3                 5.650e-014  9.112e-014   -13.248   -13.040     0.208
Ca              3.435e-001
   Ca+2                  3.368e-001  9.661e-002    -0.473    -1.015    -0.542
   CaSO4                 3.829e-003  6.175e-003    -2.417    -2.209     0.208
   CaHCO3+               2.841e-003  1.754e-003    -2.547    -2.756    -0.209
   CaF+                  1.043e-005  1.084e-005    -4.982    -4.965     0.017
   CaCO3                 3.762e-006  6.067e-006    -5.425    -5.217     0.208
   CaH2PO4+              2.047e-007  2.127e-007    -6.689    -6.672     0.017
   CaHSO4+               9.466e-008  9.839e-008    -7.024    -7.007     0.017
   CaHPO4                7.764e-008  1.252e-007    -7.110    -6.902     0.208
   CaOH+                 6.201e-009  6.446e-009    -8.208    -8.191     0.017
   CaMoO4                2.231e-009  3.599e-009    -8.651    -8.444     0.208
   CaPO4-                1.441e-010  1.498e-010    -9.841    -9.824     0.017
Cl              1.578e+000
   Cl-                   1.578e+000  8.887e-001     0.198    -0.051    -0.249
   FeCl+                 4.477e-004  4.654e-004    -3.349    -3.332     0.017
   MnCl+                 7.438e-010  7.731e-010    -9.129    -9.112     0.017
   MnCl2                 1.860e-010  2.999e-010    -9.731    -9.523     0.208
   MnCl3-                7.063e-011  7.342e-011   -10.151   -10.134     0.017
   FeCl2+                6.809e-017  7.077e-017   -16.167   -16.150     0.017
   FeCl+2                2.075e-017  2.423e-017   -16.683   -16.616     0.067
   FeCl3                 3.900e-018  6.290e-018   -17.409   -17.201     0.208
F               7.644e-005
   MgF+                  4.445e-005  4.621e-005    -4.352    -4.335     0.017
   F-                    1.961e-005  1.028e-005    -4.708    -4.988    -0.280
   CaF+                  1.043e-005  1.084e-005    -4.982    -4.965     0.017
   NaF                   1.761e-006  2.840e-006    -5.754    -5.547     0.208
   AlF2+                 4.654e-008  4.838e-008    -7.332    -7.315     0.017
   FeF+                  3.751e-008  3.900e-008    -7.426    -7.409     0.017
   HF                    2.726e-008  4.396e-008    -7.565    -7.357     0.208
   BF(OH)3-              1.660e-008  1.725e-008    -7.780    -7.763     0.017
   AlF+2                 7.648e-009  8.929e-009    -8.116    -8.049     0.067
   AlF3                  3.920e-009  6.322e-009    -8.407    -8.199     0.208
   BF2(OH)2-             4.489e-011  4.666e-011   -10.348   -10.331     0.017
   AlF4-                 2.494e-011  2.593e-011   -10.603   -10.586     0.017
   HF2-                  1.781e-012  1.851e-012   -11.749   -11.733     0.017
   MnF+                  1.461e-014  1.519e-014   -13.835   -13.819     0.017
   AlF5-2                3.548e-015  4.142e-015   -14.450   -14.383     0.067
   BF3OH-                1.054e-015  1.096e-015   -14.977   -14.960     0.017
   FeF+2                 1.075e-017  1.255e-017   -16.969   -16.901     0.067
   FeF2+                 5.541e-018  5.760e-018   -17.256   -17.240     0.017
   BF4-                  1.084e-019  1.127e-019   -18.965   -18.948     0.017
   FeF3                  6.013e-020  9.697e-020   -19.221   -19.013     0.208
   AlF6-3                2.480e-020  3.513e-020   -19.606   -19.454     0.151
   SiF6-2                7.958e-027  9.290e-027   -26.099   -26.032     0.067
Fe(2)           2.772e-003
   Fe+2                  2.263e-003  3.794e-004    -2.645    -3.421    -0.776
   FeCl+                 4.477e-004  4.654e-004    -3.349    -3.332     0.017
   FeHCO3+               4.590e-005  4.771e-005    -4.338    -4.321     0.017
   FeSO4                 1.461e-005  2.357e-005    -4.835    -4.628     0.208
   FeCO3                 1.673e-007  2.698e-007    -6.777    -6.569     0.208
   Fe(HS)2               1.213e-007  1.957e-007    -6.916    -6.708     0.208
   FeOH+                 9.561e-008  9.939e-008    -7.019    -7.003     0.017
   FeF+                  3.751e-008  3.900e-008    -7.426    -7.409     0.017
   FeH2PO4+              1.307e-008  1.358e-008    -7.884    -7.867     0.017
   FeHPO4                1.848e-009  2.980e-009    -8.733    -8.526     0.208
   FeHSO4+               3.717e-010  3.864e-010    -9.430    -9.413     0.017
   Fe(HS)3-              1.560e-011  1.621e-011   -10.807   -10.790     0.017
Fe(3)           5.949e-013
   Fe(OH)2+              5.634e-013  5.857e-013   -12.249   -12.232     0.017
   Fe(OH)3               2.868e-014  4.625e-014   -13.542   -13.335     0.208
   FeOH+2                2.611e-015  3.048e-015   -14.583   -14.516     0.067
   FeCl2+                6.809e-017  7.077e-017   -16.167   -16.150     0.017
   Fe(OH)4-              2.407e-017  2.502e-017   -16.619   -16.602     0.017
   FeCl+2                2.075e-017  2.423e-017   -16.683   -16.616     0.067
   Fe+3                  1.248e-017  6.642e-019   -16.904   -18.178    -1.274
   FeF+2                 1.075e-017  1.255e-017   -16.969   -16.901     0.067
   FeF2+                 5.541e-018  5.760e-018   -17.256   -17.240     0.017
   FeCl3                 3.900e-018  6.290e-018   -17.409   -17.201     0.208
   FeSO4+                2.541e-018  2.641e-018   -17.595   -17.578     0.017
   FeF3                  6.013e-020  9.697e-020   -19.221   -19.013     0.208
   Fe(SO4)2-             1.689e-020  1.756e-020   -19.772   -19.755     0.017
   FeH2PO4+2             1.094e-020  1.277e-020   -19.961   -19.894     0.067
   FeHPO4+               4.653e-022  4.836e-022   -21.332   -21.316     0.017
   FeHSO4+2              1.456e-023  1.699e-023   -22.837   -22.770     0.067
   Fe2(OH)2+4            9.025e-029  1.676e-028   -28.045   -27.776     0.269
   Fe3(OH)4+5            3.192e-039  8.400e-039   -38.496   -38.076     0.420
H(0)            3.857e-011
   H2                    1.928e-011  3.110e-011   -10.715   -10.507     0.208
K               1.344e-003
   K+                    1.342e-003  7.561e-004    -2.872    -3.121    -0.249
   KSO4-                 1.771e-006  1.841e-006    -5.752    -5.735     0.017
   KHPO4-                2.799e-012  2.909e-012   -11.553   -11.536     0.017
   KOH                   6.536e-013  1.054e-012   -12.185   -11.977     0.208
Li              1.216e-005
   Li+                   1.215e-005  7.777e-006    -4.915    -5.109    -0.194
   LiSO4-                9.559e-009  9.937e-009    -8.020    -8.003     0.017
   LiOH                  4.442e-014  7.163e-014   -13.352   -13.145     0.208
Mg              1.513e-001
   Mg+2                  1.473e-001  5.710e-002    -0.832    -1.243    -0.412
   MgSO4                 3.117e-003  5.027e-003    -2.506    -2.299     0.208
   MgHCO3+               8.534e-004  8.871e-004    -3.069    -3.052     0.017
   MgF+                  4.445e-005  4.621e-005    -4.352    -4.335     0.017
   MgCO3                 1.168e-006  1.883e-006    -5.933    -5.725     0.208
   MgOH+                 1.921e-007  1.997e-007    -6.716    -6.700     0.017
   MgH2PO4+              1.540e-007  1.601e-007    -6.812    -6.796     0.017
   MgHPO4                6.205e-008  1.001e-007    -7.207    -7.000     0.208
   MgMoO4                3.803e-009  6.134e-009    -8.420    -8.212     0.208
   MgPO4-                1.149e-010  1.194e-010    -9.940    -9.923     0.017
Mn(2)           2.306e-009
   Mn+2                  1.274e-009  2.135e-010    -8.895    -9.671    -0.776
   MnCl+                 7.438e-010  7.731e-010    -9.129    -9.112     0.017
   MnCl2                 1.860e-010  2.999e-010    -9.731    -9.523     0.208
   MnCl3-                7.063e-011  7.342e-011   -10.151   -10.134     0.017
   MnHCO3+               2.303e-011  2.393e-011   -10.638   -10.621     0.017
   MnSO4                 8.288e-012  1.337e-011   -11.082   -10.874     0.208
   MnCO3                 3.118e-013  5.028e-013   -12.506   -12.299     0.208
   MnF+                  1.461e-014  1.519e-014   -13.835   -13.819     0.017
   MnOH+                 4.672e-015  4.856e-015   -14.331   -14.314     0.017
   Mn(NO3)2              0.000e+000  0.000e+000  -164.651  -164.444     0.208
Mn(3)           2.065e-037
   Mn+3                  2.065e-037  2.925e-037   -36.685   -36.534     0.151
Mo              6.125e-009
   MgMoO4                3.803e-009  6.134e-009    -8.420    -8.212     0.208
   CaMoO4                2.231e-009  3.599e-009    -8.651    -8.444     0.208
   MoO4-2                8.588e-011  1.003e-010   -10.066    -9.999     0.067
   HMoO4-                3.978e-012  4.135e-012   -11.400   -11.384     0.017
   H2MoO4                2.479e-015  3.997e-015   -14.606   -14.398     0.208
N(-3)           6.890e-004
   NH4+                  6.877e-004  3.134e-004    -3.163    -3.504    -0.341
   NH4SO4-               1.137e-006  1.182e-006    -5.944    -5.928     0.017
   NH3                   9.234e-008  1.489e-007    -7.035    -6.827     0.208
N(0)            4.802e-004
   N2                    2.401e-004  3.872e-004    -3.620    -3.412     0.208
N(3)            0.000e+000
   NO2-                  0.000e+000  0.000e+000   -57.140   -57.448    -0.308
N(5)            0.000e+000
   NO3-                  0.000e+000  0.000e+000   -77.374   -77.682    -0.308
   Mn(NO3)2              0.000e+000  0.000e+000  -164.651  -164.444     0.208
Na              6.079e-001
   Na+                   6.070e-001  4.802e-001    -0.217    -0.319    -0.102
   NaSO4-                7.205e-004  7.489e-004    -3.142    -3.126     0.017
   NaHCO3                2.106e-004  3.396e-004    -3.677    -3.469     0.208
   NaF                   1.761e-006  2.840e-006    -5.754    -5.547     0.208
   NaCO3-                4.154e-007  4.318e-007    -6.382    -6.365     0.017
   NaHPO4-               1.777e-009  1.847e-009    -8.750    -8.733     0.017
   NaOH                  7.909e-010  1.276e-009    -9.102    -8.894     0.208
O(0)            0.000e+000
   O2                    0.000e+000  0.000e+000   -68.491   -68.284     0.208
P               6.600e-007
   CaH2PO4+              2.047e-007  2.127e-007    -6.689    -6.672     0.017
   MgH2PO4+              1.540e-007  1.601e-007    -6.812    -6.796     0.017
   H2PO4-                1.236e-007  7.144e-008    -6.908    -7.146    -0.238
   CaHPO4                7.764e-008  1.252e-007    -7.110    -6.902     0.208
   MgHPO4                6.205e-008  1.001e-007    -7.207    -7.000     0.208
   HPO4-2                2.114e-008  1.973e-009    -7.675    -8.705    -1.030
   FeH2PO4+              1.307e-008  1.358e-008    -7.884    -7.867     0.017
   FeHPO4                1.848e-009  2.980e-009    -8.733    -8.526     0.208
   NaHPO4-               1.777e-009  1.847e-009    -8.750    -8.733     0.017
   CaPO4-                1.441e-010  1.498e-010    -9.841    -9.824     0.017
   MgPO4-                1.149e-010  1.194e-010    -9.940    -9.923     0.017
   KHPO4-                2.799e-012  2.909e-012   -11.553   -11.536     0.017
   PO4-3                 9.440e-014  4.548e-016   -13.025   -15.342    -2.317
   FeH2PO4+2             1.094e-020  1.277e-020   -19.961   -19.894     0.067
   FeHPO4+               4.653e-022  4.836e-022   -21.332   -21.316     0.017
S(-2)           9.148e-006
   H2S                   7.454e-006  1.202e-005    -5.128    -4.920     0.208
   HS-                   1.451e-006  7.608e-007    -5.838    -6.119    -0.280
   Fe(HS)2               1.213e-007  1.957e-007    -6.916    -6.708     0.208
   Fe(HS)3-              1.560e-011  1.621e-011   -10.807   -10.790     0.017
   S-2                   5.763e-013  7.512e-014   -12.239   -13.124    -0.885
S(6)            1.040e-002
   CaSO4                 3.829e-003  6.175e-003    -2.417    -2.209     0.208
   MgSO4                 3.117e-003  5.027e-003    -2.506    -2.299     0.208
   SO4-2                 2.718e-003  2.927e-004    -2.566    -3.534    -0.968
   NaSO4-                7.205e-004  7.489e-004    -3.142    -3.126     0.017
   FeSO4                 1.461e-005  2.357e-005    -4.835    -4.628     0.208
   KSO4-                 1.771e-006  1.841e-006    -5.752    -5.735     0.017
   NH4SO4-               1.137e-006  1.182e-006    -5.944    -5.928     0.017
   SrSO4                 2.332e-007  3.761e-007    -6.632    -6.425     0.208
   CaHSO4+               9.466e-008  9.839e-008    -7.024    -7.007     0.017
   HSO4-                 8.150e-008  8.471e-008    -7.089    -7.072     0.017
   LiSO4-                9.559e-009  9.937e-009    -8.020    -8.003     0.017
   BaSO4                 4.427e-010  7.140e-010    -9.354    -9.146     0.208
   FeHSO4+               3.717e-010  3.864e-010    -9.430    -9.413     0.017
   AlSO4+                8.274e-011  8.600e-011   -10.082   -10.065     0.017
   MnSO4                 8.288e-012  1.337e-011   -11.082   -10.874     0.208
   Al(SO4)2-             8.010e-013  8.326e-013   -12.096   -12.080     0.017
   AlHSO4+2              1.715e-017  2.003e-017   -16.766   -16.698     0.067
   FeSO4+                2.541e-018  2.641e-018   -17.595   -17.578     0.017
   Fe(SO4)2-             1.689e-020  1.756e-020   -19.772   -19.755     0.017
   FeHSO4+2              1.456e-023  1.699e-023   -22.837   -22.770     0.067
Si              2.054e-004
   H4SiO4                2.054e-004  3.313e-004    -3.687    -3.480     0.208
   H3SiO4-               2.744e-008  2.853e-008    -7.562    -7.545     0.017
   H2SiO4-2              1.294e-015  1.510e-015   -14.888   -14.821     0.067
   SiF6-2                7.958e-027  9.290e-027   -26.099   -26.032     0.067
Sr              2.404e-005
   Sr+2                  2.355e-005  5.881e-006    -4.628    -5.231    -0.602
   SrHCO3+               2.581e-007  1.593e-007    -6.588    -6.798    -0.209
   SrSO4                 2.332e-007  3.761e-007    -6.632    -6.425     0.208
   SrCO3                 9.272e-011  1.495e-010   -10.033    -9.825     0.208
   SrOH+                 2.018e-013  1.213e-013   -12.695   -12.916    -0.221

------------------------------Saturation indices-------------------------------

	Phase               SI log IAP  log KT

	Al(OH)3(a)       -3.44    6.73   10.17  Al(OH)3
	Albite           -2.54  -19.93  -17.39  NaAlSi3O8
	Alunite          -4.23   -6.82   -2.60  KAl3(SO4)2(OH)6
	Anhydrite        -0.13   -4.55   -4.42  CaSO4
	Anorthite        -7.04  -26.47  -19.44  CaAl2Si2O8
	Aragonite        -0.14   -8.54   -8.41  CaCO3
	Barite           -2.02  -11.85   -9.83  BaSO4
	Ca-Montmorillonite  -2.05  -45.69  -43.64  Ca0.165Al2.33Si3.67O10(OH)2
	Calcite           0.00   -8.54   -8.54  CaCO3
	Celestite        -2.10   -8.76   -6.67  SrSO4
	CH4(g)           -5.42   -8.36   -2.94  CH4
	Chalcedony        0.00   -3.44   -3.44  SiO2
	Chlorite(14A)   -11.73   53.04   64.78  Mg5Al2Si3O10(OH)8
	Chrysotile       -7.96   23.04   31.00  Mg3Si2O5(OH)4
	CO2(g)           -0.62   -2.19   -1.58  CO2
	Dolomite          0.00  -17.31  -17.31  CaMg(CO3)2
	Fe(OH)3(a)       -6.26   -1.36    4.89  Fe(OH)3
	FeS(ppt)          0.00   -3.91   -3.92  FeS
	Fluorite         -0.50  -10.99  -10.49  CaF2
	Gibbsite         -0.84    6.73    7.57  Al(OH)3
	Goethite         -0.00   -1.34   -1.34  FeOOH
	Gypsum            0.00   -4.59   -4.59  CaSO4:2H2O
	H2(g)            -7.32  -10.51   -3.19  H2
	H2O(g)           -1.28   -0.02    1.26  H2O
	H2S(g)           -3.81   -4.92   -1.11  H2S
	Halite           -1.97   -0.37    1.60  NaCl
	Hausmannite     -46.67   11.97   58.64  Mn3O4
	Hematite          2.07   -2.67   -4.74  Fe2O3
	Hydroxyapatite   -4.43   -8.71   -4.28  Ca5(PO4)3OH
	Illite           -3.38  -42.35  -38.97  K0.6Mg0.25Al2.3Si3.5O10(OH)2
	Jarosite-K      -21.14  -31.10   -9.95  KFe3(SO4)2(OH)6
	K-feldspar       -2.89  -22.73  -19.84  KAlSi3O8
	K-mica            1.14   12.43   11.29  KAl3Si3O10(OH)2
	Kaolinite         0.00    6.60    6.60  Al2Si2O5(OH)4
	Mackinawite       0.73   -3.91   -4.65  FeS
	Manganite       -20.14    5.20   25.34  MnOOH
	Melanterite      -5.00   -7.10   -2.10  FeSO4:7H2O
	N2(g)            -0.12   -3.41   -3.29  N2
	NH3(g)           -8.40   -6.83    1.58  NH3
	O2(g)           -65.33  -68.28   -2.96  O2
	Pyrite            9.87   -8.34  -18.21  FeS2
	Pyrochroite     -13.66    1.54   15.20  Mn(OH)2
	Pyrolusite      -30.98    8.85   39.83  MnO2
	Quartz            0.40   -3.44   -3.84  SiO2
	Rhodochrosite    -6.03  -17.20  -11.16  MnCO3
	Sepiolite        -5.92    9.58   15.51  Mg2Si3O7.5OH:3H2O
	Sepiolite(d)     -9.08    9.58   18.66  Mg2Si3O7.5OH:3H2O
	Siderite          0.00  -10.95  -10.95  FeCO3
	SiO2(a)          -0.81   -3.44   -2.63  SiO2
	Strontianite     -3.47  -12.76   -9.29  SrCO3
	Sulfur           -2.26    2.40    4.66  S
	Talc             -4.12   16.18   20.30  Mg3Si4O10(OH)2
	Vivianite        -5.11  -41.11  -36.00  Fe3(PO4)2:8H2O
	Witherite        -7.28  -15.84   -8.56  BaCO3

------------------
End of simulation.
------------------

------------------------------------
Reading input data for simulation 2.
------------------------------------

	USE SOLUTION 2
	USE SURFACE 2
	USE EXCHANGE 2
	USE PURE_PHASES 2
	USE REACTION 2
	USE GAS_PHASE 2
	USE REACTION_TEMPERATURE 2
	END
-----------------------------------------
Beginning of batch-reaction calculations.
-----------------------------------------

Reaction step 1.

Using solution 2.	Seawater
Using exchange 2.	Exchanger defined in simulation 1.
Using surface 2.	Surface defined in simulation 1.
[...]
   Al(OH)4-              4.482e-010  4.659e-010    -9.348    -9.332     0.017
   Al(OH)3               3.238e-010  5.222e-010    -9.490    -9.282     0.208
   AlSO4+                8.274e-011  8.600e-011   -10.082   -10.065     0.017
   AlF4-                 2.494e-011  2.593e-011   -10.603   -10.586     0.017
   Al(SO4)2-             8.010e-013  8.326e-013   -12.096   -12.080     0.017
   AlF5-2                3.548e-015  4.142e-015   -14.450   -14.383     0.067
   AlHSO4+2              1.715e-017  2.003e-017   -16.766   -16.698     0.067
   AlF6-3                2.480e-020  3.513e-020   -19.606   -19.454     0.151
B               2.363e-003
   H3BO3                 2.362e-003  3.809e-003    -2.627    -2.419     0.208
   H2BO3-                1.060e-006  1.102e-006    -5.975    -5.958     0.017
   BF(OH)3-              1.660e-008  1.725e-008    -7.780    -7.763     0.017
   BF2(OH)2-             4.489e-011  4.666e-011   -10.348   -10.331     0.017
   BF3OH-                1.054e-015  1.096e-015   -14.977   -14.960     0.017
   BF4-                  1.084e-019  1.127e-019   -18.965   -18.948     0.017
Ba              3.786e-008
   Ba+2                  3.734e-008  4.867e-009    -7.428    -8.313    -0.885
   BaSO4                 4.427e-010  7.140e-010    -9.354    -9.146     0.208
   BaHCO3+               7.733e-011  8.038e-011   -10.112   -10.095     0.017
   BaCO3                 5.650e-014  9.112e-014   -13.248   -13.040     0.208
   BaOH+                 6.379e-017  6.631e-017   -16.195   -16.178     0.017
Br              8.800e-004
   Br-                   8.800e-004  4.331e-004    -3.056    -3.363    -0.308
C(-4)           2.715e-009
   CH4                   2.715e-009  4.379e-009    -8.566    -8.359     0.208
C(4)            9.955e-003
   CO2                   3.961e-003  6.389e-003    -2.402    -2.195     0.208
   CaHCO3+               2.841e-003  1.754e-003    -2.547    -2.756    -0.209
   HCO3-                 2.037e-003  1.258e-003    -2.691    -2.900    -0.209
   MgHCO3+               8.534e-004  8.871e-004    -3.069    -3.052     0.017
   NaHCO3                2.106e-004  3.396e-004    -3.677    -3.469     0.208
   FeHCO3+               4.590e-005  4.771e-005    -4.338    -4.321     0.017
   CaCO3                 3.762e-006  6.067e-006    -5.425    -5.217     0.208
   MgCO3                 1.168e-006  1.883e-006    -5.933    -5.725     0.208
   NaCO3-                4.154e-007  4.318e-007    -6.382    -6.365     0.017
   SrHCO3+               2.581e-007  1.593e-007    -6.588    -6.798    -0.209
   CO3-2                 2.040e-007  2.965e-008    -6.690    -7.528    -0.838
   FeCO3                 1.673e-007  2.698e-007    -6.777    -6.569     0.208
   SrCO3                 9.272e-011  1.495e-010   -10.033    -9.825     0.208
   BaHCO3+               7.733e-011  8.038e-011   -10.112   -10.095     0.017
   MnHCO3+               2.303e-011  2.393e-011   -10.638   -10.621     0.017
   MnCO3                 3.118e-013  5.028e-013   -12.506   -12.299     0.208
   BaCO3                 5.650e-014  9.112e-014   -13.248   -13.040     0.208
Ca              3.435e-001
   Ca+2                  3.368e-001  9.661e-002    -0.473    -1.015    -0.542
   CaSO4                 3.829e-003  6.175e-003    -2.417    -2.209     0.208
   CaHCO3+               2.841e-003  1.754e-003    -2.547    -2.756    -0.209
   CaF+                  1.043e-005  1.084e-005    -4.982    -4.965     0.017
   CaCO3                 3.762e-006  6.067e-006    -5.425    -5.217     0.208
   CaH2PO4+              2.047e-007  2.127e-007    -6.689    -6.672     0.017
   CaHSO4+               9.466e-008  9.839e-008    -7.024    -7.007     0.017
   CaHPO4                7.764e-008  1.252e-007    -7.110    -6.902     0.208
   CaOH+                 6.201e-009  6.446e-009    -8.208    -8.191     0.017
   CaMoO4                2.231e-009  3.599e-009    -8.651    -8.444     0.208
   CaPO4-                1.441e-010  1.498e-010    -9.841    -9.824     0.017
Cl              1.578e+000
   Cl-                   1.578e+000  8.887e-001     0.198    -0.051    -0.249
   FeCl+                 4.477e-004  4.654e-004    -3.349    -3.332     0.017
   MnCl+                 7.438e-010  7.731e-010    -9.129    -9.112     0.017
   MnCl2                 1.860e-010  2.999e-010    -9.731    -9.523     0.208
   MnCl3-                7.063e-011  7.342e-011   -10.151   -10.134     0.017
   FeCl2+                6.809e-017  7.077e-017   -16.167   -16.150     0.017
   FeCl+2                2.075e-017  2.423e-017   -16.683   -16.616     0.067
   FeCl3                 3.900e-018  6.290e-018   -17.409   -17.201     0.208
F               7.644e-005
   MgF+                  4.445e-005  4.621e-005    -4.352    -4.335     0.017
   F-                    1.961e-005  1.028e-005    -4.708    -4.988    -0.280
   CaF+                  1.043e-005  1.084e-005    -4.982    -4.965     0.017
   NaF                   1.761e-006  2.840e-006    -5.754    -5.547     0.208
   AlF2+                 4.654e-008  4.838e-008    -7.332    -7.315     0.017
   FeF+                  3.751e-008  3.900e-008    -7.426    -7.409     0.017
   HF                    2.726e-008  4.396e-008    -7.565    -7.357     0.208
   BF(OH)3-              1.660e-008  1.725e-008    -7.780    -7.763     0.017
   AlF+2                 7.648e-009  8.929e-009    -8.116    -8.049     0.067
   AlF3                  3.920e-009  6.322e-009    -8.407    -8.199     0.208
   BF2(OH)2-             4.489e-011  4.666e-011   -10.348   -10.331     0.017
   AlF4-                 2.494e-011  2.593e-011   -10.603   -10.586     0.017
   HF2-                  1.781e-012  1.851e-012   -11.749   -11.733     0.017
   MnF+                  1.461e-014  1.519e-014   -13.835   -13.819     0.017
   AlF5-2                3.548e-015  4.142e-015   -14.450   -14.383     0.067
   BF3OH-                1.054e-015  1.096e-015   -14.977   -14.960     0.017
   FeF+2                 1.075e-017  1.255e-017   -16.969   -16.901     0.067
   FeF2+                 5.541e-018  5.760e-018   -17.256   -17.240     0.017
   BF4-                  1.084e-019  1.127e-019   -18.965   -18.948     0.017
   FeF3                  6.013e-020  9.697e-020   -19.221   -19.013     0.208
   AlF6-3                2.480e-020  3.513e-020   -19.606   -19.454     0.151
   SiF6-2                7.958e-027  9.290e-027   -26.099   -26.032     0.067
Fe(2)           2.772e-003
   Fe+2                  2.263e-003  3.794e-004    -2.645    -3.421    -0.776
   FeCl+                 4.477e-004  4.654e-004    -3.349    -3.332     0.017
   FeHCO3+               4.590e-005  4.771e-005    -4.338    -4.321     0.017
   FeSO4                 1.461e-005  2.357e-005    -4.835    -4.628     0.208
   FeCO3                 1.673e-007  2.698e-007    -6.777    -6.569     0.208
   Fe(HS)2               1.213e-007  1.957e-007    -6.916    -6.708     0.208
   FeOH+                 9.561e-008  9.939e-008    -7.019    -7.003     0.017
   FeF+                  3.751e-008  3.900e-008    -7.426    -7.409     0.017
   FeH2PO4+              1.307e-008  1.358e-008    -7.884    -7.867     0.017
   FeHPO4                1.848e-009  2.980e-009    -8.733    -8.526     0.208
   FeHSO4+               3.717e-010  3.864e-010    -9.430    -9.413     0.017
   Fe(HS)3-              1.560e-011  1.621e-011   -10.807   -10.790     0.017
Fe(3)           5.949e-013
   Fe(OH)2+              5.634e-013  5.857e-013   -12.249   -12.232     0.017
   Fe(OH)3               2.868e-014  4.625e-014   -13.542   -13.335     0.208
   FeOH+2                2.611e-015  3.048e-015   -14.583   -14.516     0.067
   FeCl2+                6.809e-017  7.077e-017   -16.167   -16.150     0.017
   Fe(OH)4-              2.407e-017  2.502e-017   -16.619   -16.602     0.017
   FeCl+2                2.075e-017  2.423e-017   -16.683   -16.616     0.067
   Fe+3                  1.248e-017  6.642e-019   -16.904   -18.178    -1.274
   FeF+2                 1.075e-017  1.255e-017   -16.969   -16.901     0.067
   FeF2+                 5.541e-018  5.760e-018   -17.256   -17.240     0.017
   FeCl3                 3.900e-018  6.290e-018   -17.409   -17.201     0.208
   FeSO4+                2.541e-018  2.641e-018   -17.595   -17.578     0.017
   FeF3                  6.013e-020  9.697e-020   -19.221   -19.013     0.208
   Fe(SO4)2-             1.689e-020  1.756e-020   -19.772   -19.755     0.017
   FeH2PO4+2             1.094e-020  1.277e-020   -19.961   -19.894     0.067
   FeHPO4+               4.653e-022  4.836e-022   -21.332   -21.316     0.017
   FeHSO4+2              1.456e-023  1.699e-023   -22.837   -22.770     0.067
   Fe2(OH)2+4            9.025e-029  1.676e-028   -28.045   -27.776     0.269
   Fe3(OH)4+5            3.192e-039  8.400e-039   -38.496   -38.076     0.420
H(0)            3.857e-011
   H2                    1.928e-011  3.110e-011   -10.715   -10.507     0.208
K               1.344e-003
   K+                    1.342e-003  7.561e-004    -2.872    -3.121    -0.249
   KSO4-                 1.771e-006  1.841e-006    -5.752    -5.735     0.017
   KHPO4-                2.799e-012  2.909e-012   -11.553   -11.536     0.017
   KOH                   6.536e-013  1.054e-012   -12.185   -11.977     0.208
Li              1.216e-005
   Li+                   1.215e-005  7.777e-006    -4.915    -5.109    -0.194
   LiSO4-                9.559e-009  9.937e-009    -8.020    -8.003     0.017
   LiOH                  4.442e-014  7.163e-014   -13.352   -13.145     0.208
Mg              1.513e-001
   Mg+2                  1.473e-001  5.710e-002    -0.832    -1.243    -0.412
   MgSO4                 3.117e-003  5.027e-003    -2.506    -2.299     0.208
   MgHCO3+               8.534e-004  8.871e-004    -3.069    -3.052     0.017
   MgF+                  4.445e-005  4.621e-005    -4.352    -4.335     0.017
   MgCO3                 1.168e-006  1.883e-006    -5.933    -5.725     0.208
   MgOH+                 1.921e-007  1.997e-007    -6.716    -6.700     0.017
   MgH2PO4+              1.540e-007  1.601e-007    -6.812    -6.796     0.017
   MgHPO4                6.205e-008  1.001e-007    -7.207    -7.000     0.208
   MgMoO4                3.803e-009  6.134e-009    -8.420    -8.212     0.208
   MgPO4-                1.149e-010  1.194e-010    -9.940    -9.923     0.017
Mn(2)           2.306e-009
   Mn+2                  1.274e-009  2.135e-010    -8.895    -9.671    -0.776
   MnCl+                 7.438e-010  7.731e-010    -9.129    -9.112     0.017
   MnCl2                 1.860e-010  2.999e-010    -9.731    -9.523     0.208
   MnCl3-                7.063e-011  7.342e-011   -10.151   -10.134     0.017
   MnHCO3+               2.303e-011  2.393e-011   -10.638   -10.621     0.017
   MnSO4                 8.288e-012  1.337e-011   -11.082   -10.874     0.208
   MnCO3                 3.118e-013  5.028e-013   -12.506   -12.299     0.208
   MnF+                  1.461e-014  1.519e-014   -13.835   -13.819     0.017
   MnOH+                 4.672e-015  4.856e-015   -14.331   -14.314     0.017
   Mn(NO3)2              0.000e+000  0.000e+000  -164.651  -164.444     0.208
Mn(3)           2.065e-037
   Mn+3                  2.065e-037  2.925e-037   -36.685   -36.534     0.151
Mo              6.125e-009
   MgMoO4                3.803e-009  6.134e-009    -8.420    -8.212     0.208
   CaMoO4                2.231e-009  3.599e-009    -8.651    -8.444     0.208
   MoO4-2                8.588e-011  1.003e-010   -10.066    -9.999     0.067
   HMoO4-                3.978e-012  4.135e-012   -11.400   -11.384     0.017
   H2MoO4                2.479e-015  3.997e-015   -14.606   -14.398     0.208
N(-3)           6.890e-004
   NH4+                  6.877e-004  3.134e-004    -3.163    -3.504    -0.341
   NH4SO4-               1.137e-006  1.182e-006    -5.944    -5.928     0.017
   NH3                   9.234e-008  1.489e-007    -7.035    -6.827     0.208
N(0)            4.802e-004
   N2                    2.401e-004  3.872e-004    -3.620    -3.412     0.208
N(3)            0.000e+000
   NO2-                  0.000e+000  0.000e+000   -57.140   -57.448    -0.308
N(5)            0.000e+000
   NO3-                  0.000e+000  0.000e+000   -77.374   -77.682    -0.308
   Mn(NO3)2              0.000e+000  0.000e+000  -164.651  -164.444     0.208
Na              6.079e-001
   Na+                   6.070e-001  4.802e-001    -0.217    -0.319    -0.102
   NaSO4-                7.205e-004  7.489e-004    -3.142    -3.126     0.017
   NaHCO3                2.106e-004  3.396e-004    -3.677    -3.469     0.208
   NaF                   1.761e-006  2.840e-006    -5.754    -5.547     0.208
   NaCO3-                4.154e-007  4.318e-007    -6.382    -6.365     0.017
   NaHPO4-               1.777e-009  1.847e-009    -8.750    -8.733     0.017
   NaOH                  7.909e-010  1.276e-009    -9.102    -8.894     0.208
O(0)            0.000e+000
   O2                    0.000e+000  0.000e+000   -68.491   -68.284     0.208
P               6.600e-007
   CaH2PO4+              2.047e-007  2.127e-007    -6.689    -6.672     0.017
   MgH2PO4+              1.540e-007  1.601e-007    -6.812    -6.796     0.017
   H2PO4-                1.236e-007  7.144e-008    -6.908    -7.146    -0.238
   CaHPO4                7.764e-008  1.252e-007    -7.110    -6.902     0.208
   MgHPO4                6.205e-008  1.001e-007    -7.207    -7.000     0.208
   HPO4-2                2.114e-008  1.973e-009    -7.675    -8.705    -1.030
   FeH2PO4+              1.307e-008  1.358e-008    -7.884    -7.867     0.017
   FeHPO4                1.848e-009  2.980e-009    -8.733    -8.526     0.208
   NaHPO4-               1.777e-009  1.847e-009    -8.750    -8.733     0.017
   CaPO4-                1.441e-010  1.498e-010    -9.841    -9.824     0.017
   MgPO4-                1.149e-010  1.194e-010    -9.940    -9.923     0.017
   KHPO4-                2.799e-012  2.909e-012   -11.553   -11.536     0.017
   PO4-3                 9.440e-014  4.548e-016   -13.025   -15.342    -2.317
   FeH2PO4+2             1.094e-020  1.277e-020   -19.961   -19.894     0.067
   FeHPO4+               4.653e-022  4.836e-022   -21.332   -21.316     0.017
S(-2)           9.148e-006
   H2S                   7.454e-006  1.202e-005    -5.128    -4.920     0.208
   HS-                   1.451e-006  7.608e-007    -5.838    -6.119    -0.280
   Fe(HS)2               1.213e-007  1.957e-007    -6.916    -6.708     0.208
   Fe(HS)3-              1.560e-011  1.621e-011   -10.807   -10.790     0.017
   S-2                   5.763e-013  7.512e-014   -12.239   -13.124    -0.885
S(6)            1.040e-002
   CaSO4                 3.829e-003  6.175e-003    -2.417    -2.209     0.208
   MgSO4                 3.117e-003  5.027e-003    -2.506    -2.299     0.208
   SO4-2                 2.718e-003  2.927e-004    -2.566    -3.534    -0.968
   NaSO4-                7.205e-004  7.489e-004    -3.142    -3.126     0.017
   FeSO4                 1.461e-005  2.357e-005    -4.835    -4.628     0.208
   KSO4-                 1.771e-006  1.841e-006    -5.752    -5.735     0.017
   NH4SO4-               1.137e-006  1.182e-006    -5.944    -5.928     0.017
   SrSO4                 2.332e-007  3.761e-007    -6.632    -6.425     0.208
   CaHSO4+               9.466e-008  9.839e-008    -7.024    -7.007     0.017
   HSO4-                 8.150e-008  8.471e-008    -7.089    -7.072     0.017
   LiSO4-                9.559e-009  9.937e-009    -8.020    -8.003     0.017
   BaSO4                 4.427e-010  7.140e-010    -9.354    -9.146     0.208
   FeHSO4+               3.717e-010  3.864e-010    -9.430    -9.413     0.017
   AlSO4+                8.274e-011  8.600e-011   -10.082   -10.065     0.017
   MnSO4                 8.288e-012  1.337e-011   -11.082   -10.874     0.208
   Al(SO4)2-             8.010e-013  8.326e-013   -12.096   -12.080     0.017
   AlHSO4+2              1.715e-017  2.003e-017   -16.766   -16.698     0.067
   FeSO4+                2.541e-018  2.641e-018   -17.595   -17.578     0.017
   Fe(SO4)2-             1.689e-020  1.756e-020   -19.772   -19.755     0.017
   FeHSO4+2              1.456e-023  1.699e-023   -22.837   -22.770     0.067
Si              2.054e-004
   H4SiO4                2.054e-004  3.313e-004    -3.687    -3.480     0.208
   H3SiO4-               2.744e-008  2.853e-008    -7.562    -7.545     0.017
   H2SiO4-2              1.294e-015  1.510e-015   -14.888   -14.821     0.067
   SiF6-2                7.958e-027  9.290e-027   -26.099   -26.032     0.067
Sr              2.404e-005
   Sr+2                  2.355e-005  5.881e-006    -4.628    -5.231    -0.602
   SrHCO3+               2.581e-007  1.593e-007    -6.588    -6.798    -0.209
   SrSO4                 2.332e-007  3.761e-007    -6.632    -6.425     0.208
   SrCO3                 9.272e-011  1.495e-010   -10.033    -9.825     0.208
   SrOH+                 2.018e-013  1.213e-013   -12.695   -12.916    -0.221

------------------------------Saturation indices-------------------------------

	Phase               SI log IAP  log KT

	Al(OH)3(a)       -3.44    6.73   10.17  Al(OH)3
	Albite           -2.54  -19.93  -17.39  NaAlSi3O8
	Alunite          -4.23   -6.82   -2.60  KAl3(SO4)2(OH)6
	Anhydrite        -0.13   -4.55   -4.42  CaSO4
	Anorthite        -7.04  -26.47  -19.44  CaAl2Si2O8
	Aragonite        -0.14   -8.54   -8.41  CaCO3
	Barite           -2.02  -11.85   -9.83  BaSO4
	Ca-Montmorillonite  -2.05  -45.69  -43.64  Ca0.165Al2.33Si3.67O10(OH)2
	Calcite           0.00   -8.54   -8.54  CaCO3
	Celestite        -2.10   -8.76   -6.67  SrSO4
	CH4(g)           -5.42   -8.36   -2.94  CH4
	Chalcedony        0.00   -3.44   -3.44  SiO2
	Chlorite(14A)   -11.73   53.04   64.78  Mg5Al2Si3O10(OH)8
	Chrysotile       -7.96   23.04   31.00  Mg3Si2O5(OH)4
	CO2(g)           -0.62   -2.19   -1.58  CO2
	Dolomite          0.00  -17.31  -17.31  CaMg(CO3)2
	Fe(OH)3(a)       -6.26   -1.36    4.89  Fe(OH)3
	FeS(ppt)          0.00   -3.91   -3.92  FeS
	Fluorite         -0.50  -10.99  -10.49  CaF2
	Gibbsite         -0.84    6.73    7.57  Al(OH)3
	Goethite         -0.00   -1.34   -1.34  FeOOH
	Gypsum            0.00   -4.59   -4.59  CaSO4:2H2O
	H2(g)            -7.32  -10.51   -3.19  H2
	H2O(g)           -1.28   -0.02    1.26  H2O
	H2S(g)           -3.81   -4.92   -1.11  H2S
	Halite           -1.97   -0.37    1.60  NaCl
	Hausmannite     -46.67   11.97   58.64  Mn3O4
	Hematite          2.07   -2.67   -4.74  Fe2O3
	Hydroxyapatite   -4.43   -8.71   -4.28  Ca5(PO4)3OH
	Illite           -3.38  -42.35  -38.97  K0.6Mg0.25Al2.3Si3.5O10(OH)2
	Jarosite-K      -21.14  -31.10   -9.95  KFe3(SO4)2(OH)6
	K-feldspar       -2.89  -22.73  -19.84  KAlSi3O8
	K-mica            1.14   12.43   11.29  KAl3Si3O10(OH)2
	Kaolinite        -0.00    6.60    6.60  Al2Si2O5(OH)4
	Mackinawite       0.73   -3.91   -4.65  FeS
	Manganite       -20.14    5.20   25.34  MnOOH
	Melanterite      -5.00   -7.10   -2.10  FeSO4:7H2O
	N2(g)            -0.12   -3.41   -3.29  N2
	NH3(g)           -8.40   -6.83    1.58  NH3
	O2(g)           -65.33  -68.28   -2.96  O2
	Pyrite            9.87   -8.34  -18.21  FeS2
	Pyrochroite     -13.66    1.54   15.20  Mn(OH)2
	Pyrolusite      -30.98    8.85   39.83  MnO2
	Quartz            0.40   -3.44   -3.84  SiO2
	Rhodochrosite    -6.03  -17.20  -11.16  MnCO3
	Sepiolite        -5.92    9.58   15.51  Mg2Si3O7.5OH:3H2O
	Sepiolite(d)     -9.08    9.58   18.66  Mg2Si3O7.5OH:3H2O
	Siderite          0.00  -10.95  -10.95  FeCO3
	SiO2(a)          -0.81   -3.44   -2.63  SiO2
	Strontianite     -3.47  -12.76   -9.29  SrCO3
	Sulfur           -2.26    2.40    4.66  S
	Talc             -4.12   16.18   20.30  Mg3Si4O10(OH)2
	Vivianite        -5.11  -41.11  -36.00  Fe3(PO4)2:8H2O
	Witherite        -7.28  -15.84   -8.56  BaCO3

------------------
End of simulation.
------------------

------------------------------------
Reading input data for simulation 4.
------------------------------------

-----------
End of run.
-----------

