   Input file: solid_solution
  Output file: solid_solution.out
Database file: ../database/phreeqc.dat

------------------
Reading data base.
------------------

	SOLUTION_MASTER_SPECIES
	SOLUTION_SPECIES
	PHASES
	EXCHANGE_MASTER_SPECIES
	EXCHANGE_SPECIES
	SURFACE_MASTER_SPECIES
	SURFACE_SPECIES
	RATES
	END
------------------------------------
Reading input data for simulation 1.
------------------------------------

	DATABASE ../database/phreeqc.dat
	PHASES
		Magnesite
		MgCO3 = CO3-2 + Mg+2
	        log_k           -10.480
	SOLUTION 1
		units umol/kgw
		pH 7.0
		Ca	10
		Mg	10
		C	40
	SOLID_SOLUTIONS	1
		Ca(x)Mg(1-x)CO3	
			component	Calcite		0 #1.0
			component	Magnesite	0 #0.03
	END
-------------------------------------------
Beginning of initial solution calculations.
-------------------------------------------

Initial solution 1.	

-----------------------------Solution composition------------------------------

	Elements           Molality       Moles

	C                4.000e-005  4.000e-005
	Ca               1.000e-005  1.000e-005
	Mg               1.000e-005  1.000e-005

----------------------------Description of solution----------------------------

                                       pH  =   7.000    
                                       pe  =   4.000    
       Specific Conductance (uS/cm, 25 oC) = 3
                          Density (g/cm3)  =   0.99705
                        Activity of water  =   1.000
                           Ionic strength  =  5.646e-005
                       Mass of water (kg)  =  1.000e+000
                 Total alkalinity (eq/kg)  =  3.273e-005
                       Total CO2 (mol/kg)  =  4.000e-005
                      Temperature (deg C)  =  25.000
                  Electrical balance (eq)  =  7.270e-006
 Percent error, 100*(Cat-|An|)/(Cat+|An|)  =   9.97
                               Iterations  =   5
                                  Total H  = 1.110125e+002
                                  Total O  = 5.550633e+001

----------------------------Distribution of species----------------------------

                                                   Log       Log         Log 
   Species                 Molality    Activity  Molality  Activity     Gamma

   OH-                   1.010e-007  1.001e-007    -6.996    -7.000    -0.004
   H+                    1.009e-007  1.000e-007    -6.996    -7.000    -0.004
   H2O                   5.551e+001  1.000e+000     1.744    -0.000     0.000
C(-4)           0.000e+000
   CH4                   0.000e+000  0.000e+000   -68.747   -68.747     0.000
C(4)            4.000e-005
   HCO3-                 3.269e-005  3.241e-005    -4.486    -4.489    -0.004
   CO2                   7.286e-006  7.286e-006    -5.138    -5.137     0.000
   CO3-2                 1.574e-008  1.520e-008    -7.803    -7.818    -0.015
   CaHCO3+               4.026e-009  3.992e-009    -8.395    -8.399    -0.004
   MgHCO3+               3.693e-009  3.661e-009    -8.433    -8.436    -0.004
   CaCO3                 2.465e-010  2.465e-010    -9.608    -9.608     0.000
   MgCO3                 1.400e-010  1.400e-010    -9.854    -9.854     0.000
Ca              1.000e-005
   Ca+2                  9.996e-006  9.654e-006    -5.000    -5.015    -0.015
   CaHCO3+               4.026e-009  3.992e-009    -8.395    -8.399    -0.004
   CaCO3                 2.465e-010  2.465e-010    -9.608    -9.608     0.000
   CaOH+                 1.616e-011  1.602e-011   -10.792   -10.795    -0.004
H(0)            1.416e-025
   H2                    7.079e-026  7.079e-026   -25.150   -25.150     0.000
Mg              1.000e-005
   Mg+2                  9.996e-006  9.654e-006    -5.000    -5.015    -0.015
   MgHCO3+               3.693e-009  3.661e-009    -8.433    -8.436    -0.004
   MgOH+                 3.536e-010  3.505e-010    -9.451    -9.455    -0.004
   MgCO3                 1.400e-010  1.400e-010    -9.854    -9.854     0.000
O(0)            0.000e+000
   O2                    0.000e+000  0.000e+000   -42.080   -42.080     0.000

------------------------------Saturation indices-------------------------------

	Phase               SI log IAP  log KT

	Aragonite        -4.50  -12.83   -8.34  CaCO3
	Calcite          -4.35  -12.83   -8.48  CaCO3
	CH4(g)          -65.89  -68.75   -2.86  CH4
	CO2(g)           -3.67   -5.14   -1.47  CO2
	Dolomite         -8.58  -25.67  -17.09  CaMg(CO3)2
	H2(g)           -22.00  -25.15   -3.15  H2
	H2O(g)           -1.51   -0.00    1.51  H2O
	Magnesite        -2.35  -12.83  -10.48  MgCO3
	O2(g)           -39.19  -42.08   -2.89  O2

-----------------------------------------
Beginning of batch-reaction calculations.
-----------------------------------------

Reaction step 1.

Using solution 1.	
Using solid solution assemblage 1.	

--------------------------------Solid solutions--------------------------------


Solid solution                Component        Moles  Delta moles   Mole fract

Ca(x)Mg(1-x)CO3                            0.00e+000
                                Calcite    0.00e+000    0.00e+000    0.00e+000
                              Magnesite    0.00e+000    0.00e+000    0.00e+000

-----------------------------Solution composition------------------------------

	Elements           Molality       Moles

	C                4.000e-005  4.000e-005
	Ca               1.000e-005  1.000e-005
	Mg               1.000e-005  1.000e-005

----------------------------Description of solution----------------------------

                                       pH  =   7.000      Charge balance
                                       pe  =   4.000      Adjusted to redox equilibrium
       Specific Conductance (uS/cm, 25 oC) = 3
                          Density (g/cm3)  =   0.99705
                        Activity of water  =   1.000
                           Ionic strength  =  5.646e-005
                       Mass of water (kg)  =  1.000e+000
                 Total alkalinity (eq/kg)  =  3.273e-005
                       Total CO2 (mol/kg)  =  4.000e-005
                      Temperature (deg C)  =  25.000
                  Electrical balance (eq)  =  7.270e-006
 Percent error, 100*(Cat-|An|)/(Cat+|An|)  =   9.97
                               Iterations  =   0
                                  Total H  = 1.110125e+002
                                  Total O  = 5.550633e+001

----------------------------Distribution of species----------------------------

                                                   Log       Log         Log 
   Species                 Molality    Activity  Molality  Activity     Gamma

   OH-                   1.010e-007  1.001e-007    -6.996    -7.000    -0.004
   H+                    1.009e-007  1.000e-007    -6.996    -7.000    -0.004
   H2O                   5.551e+001  1.000e+000     1.744    -0.000     0.000
C(-4)           0.000e+000
   CH4                   0.000e+000  0.000e+000   -68.747   -68.747     0.000
C(4)            4.000e-005
   HCO3-                 3.269e-005  3.241e-005    -4.486    -4.489    -0.004
   CO2                   7.286e-006  7.286e-006    -5.138    -5.137     0.000
   CO3-2                 1.574e-008  1.520e-008    -7.803    -7.818    -0.015
   CaHCO3+               4.026e-009  3.992e-009    -8.395    -8.399    -0.004
   MgHCO3+               3.693e-009  3.661e-009    -8.433    -8.436    -0.004
   CaCO3                 2.465e-010  2.465e-010    -9.608    -9.608     0.000
   MgCO3                 1.400e-010  1.400e-010    -9.854    -9.854     0.000
Ca              1.000e-005
   Ca+2                  9.996e-006  9.654e-006    -5.000    -5.015    -0.015
   CaHCO3+               4.026e-009  3.992e-009    -8.395    -8.399    -0.004
   CaCO3                 2.465e-010  2.465e-010    -9.608    -9.608     0.000
   CaOH+                 1.616e-011  1.602e-011   -10.792   -10.795    -0.004
H(0)            1.416e-025
   H2                    7.079e-026  7.079e-026   -25.150   -25.150     0.000
Mg              1.000e-005
   Mg+2                  9.996e-006  9.654e-006    -5.000    -5.015    -0.015
   MgHCO3+               3.693e-009  3.661e-009    -8.433    -8.436    -0.004
   MgOH+                 3.536e-010  3.505e-010    -9.451    -9.455    -0.004
   MgCO3                 1.400e-010  1.400e-010    -9.854    -9.854     0.000
O(0)            0.000e+000
   O2                    0.000e+000  0.000e+000   -42.080   -42.080     0.000

------------------------------Saturation indices-------------------------------

	Phase               SI log IAP  log KT

	Aragonite        -4.50  -12.83   -8.34  CaCO3
	Calcite          -4.35  -12.83   -8.48  CaCO3
	CH4(g)          -65.89  -68.75   -2.86  CH4
	CO2(g)           -3.67   -5.14   -1.47  CO2
	Dolomite         -8.58  -25.67  -17.09  CaMg(CO3)2
	H2(g)           -22.00  -25.15   -3.15  H2
	H2O(g)           -1.51   -0.00    1.51  H2O
	Magnesite        -2.35  -12.83  -10.48  MgCO3
	O2(g)           -39.19  -42.08   -2.89  O2

------------------
End of simulation.
------------------

------------------------------------
Reading input data for simulation 2.
------------------------------------

	USE solution 1
	USE solid_solution 1
	REACTION
		CaCO3	1
		10 mmol
	END	
-----------------------------------------
Beginning of batch-reaction calculations.
-----------------------------------------

Reaction step 1.

Using solution 1.	
Using solid solution assemblage 1.	
Using reaction 1.	

Reaction 1.	Irreversible reaction defined in simulation 2.

	 1.000e-002 moles of the following reaction have been added:

	                 Relative
	Reactant            moles

	CaCO3                1.00000

	                 Relative
	Element             moles
	C                    1.00000
	Ca                   1.00000
	O                    3.00000

--------------------------------Solid solutions--------------------------------


Solid solution                Component        Moles  Delta moles   Mole fract

Ca(x)Mg(1-x)CO3                            9.89e-003
                                Calcite    9.88e-003    9.88e-003    9.99e-001
                              Magnesite    1.00e-005    1.00e-005    1.01e-003

-----------------------------Solution composition------------------------------

	Elements           Molality       Moles

	C                1.470e-004  1.470e-004
	Ca               1.270e-004  1.270e-004
	Mg               1.284e-009  1.284e-009

----------------------------Description of solution----------------------------

                                       pH  =   9.778      Charge balance
                                       pe  =   8.237      Adjusted to redox equilibrium
       Specific Conductance (uS/cm, 25 oC) = 35
                          Density (g/cm3)  =   0.99706
                        Activity of water  =   1.000
                           Ionic strength  =  3.929e-004
                       Mass of water (kg)  =  1.000e+000
                 Total alkalinity (eq/kg)  =  2.468e-004
                       Total CO2 (mol/kg)  =  1.470e-004
                      Temperature (deg C)  =  25.000
                  Electrical balance (eq)  =  7.270e-006
 Percent error, 100*(Cat-|An|)/(Cat+|An|)  =   1.52
                               Iterations  =  16
                                  Total H  = 1.110125e+002
                                  Total O  = 5.550665e+001

----------------------------Distribution of species----------------------------

                                                   Log       Log         Log 
   Species                 Molality    Activity  Molality  Activity     Gamma

   OH-                   6.144e-005  6.006e-005    -4.212    -4.221    -0.010
   H+                    1.704e-010  1.667e-010    -9.769    -9.778    -0.010
   H2O                   5.551e+001  1.000e+000     1.744    -0.000     0.000
C(-4)           0.000e+000
   CH4                   0.000e+000  0.000e+000  -127.127  -127.127     0.000
C(4)            1.470e-004
   HCO3-                 1.086e-004  1.062e-004    -3.964    -3.974    -0.010
   CO3-2                 3.268e-005  2.987e-005    -4.486    -4.525    -0.039
   CaCO3                 5.559e-006  5.559e-006    -5.255    -5.255     0.000
   CaHCO3+               1.535e-007  1.501e-007    -6.814    -6.824    -0.010
   CO2                   3.979e-008  3.979e-008    -7.400    -7.400     0.000
   MgCO3                 3.193e-011  3.194e-011   -10.496   -10.496     0.000
   MgHCO3+               1.424e-012  1.392e-012   -11.847   -11.856    -0.010
Ca              1.270e-004
   Ca+2                  1.212e-004  1.108e-004    -3.917    -3.956    -0.039
   CaCO3                 5.559e-006  5.559e-006    -5.255    -5.255     0.000
   CaHCO3+               1.535e-007  1.501e-007    -6.814    -6.824    -0.010
   CaOH+                 1.128e-007  1.103e-007    -6.948    -6.957    -0.010
H(0)            1.324e-039
   H2                    6.618e-040  6.619e-040   -39.179   -39.179     0.000
Mg              1.284e-009
   Mg+2                  1.225e-009  1.120e-009    -8.912    -8.951    -0.039
   MgCO3                 3.193e-011  3.194e-011   -10.496   -10.496     0.000
   MgOH+                 2.496e-011  2.440e-011   -10.603   -10.613    -0.010
   MgHCO3+               1.424e-012  1.392e-012   -11.847   -11.856    -0.010
O(0)            1.903e-014
   O2                    9.515e-015  9.516e-015   -14.022   -14.022     0.000

------------------------------Saturation indices-------------------------------

	Phase               SI log IAP  log KT

	Aragonite        -0.14   -8.48   -8.34  CaCO3
	Calcite          -0.00   -8.48   -8.48  CaCO3
	CH4(g)         -124.27 -127.13   -2.86  CH4
	CO2(g)           -5.93   -7.40   -1.47  CO2
	Dolomite         -4.87  -21.96  -17.09  CaMg(CO3)2
	H2(g)           -36.03  -39.18   -3.15  H2
	H2O(g)           -1.51   -0.00    1.51  H2O
	Magnesite        -3.00  -13.48  -10.48  MgCO3
	O2(g)           -11.13  -14.02   -2.89  O2

------------------
End of simulation.
------------------

------------------------------------
Reading input data for simulation 3.
------------------------------------

-----------
End of run.
-----------

