   Input file: surf_related_pz
  Output file: surf_related_pz.out
Database file: ../database/pitzer.dat

------------------
Reading data base.
------------------

	SOLUTION_MASTER_SPECIES
	SOLUTION_SPECIES
	PHASES
	PITZER
	EXCHANGE_MASTER_SPECIES
	EXCHANGE_SPECIES
	SURFACE_MASTER_SPECIES
	SURFACE_SPECIES
	END
------------------------------------
Reading input data for simulation 1.
------------------------------------

	DATABASE ../database/pitzer.dat
	knobs
		convergence_tolerance	1e-10
		logfile
	solution 1
	equilibrium_phases 1-2
		gypsum	0.0	0.2
	save solution 1-2
	end
-------------------------------------------
Beginning of initial solution calculations.
-------------------------------------------

Initial solution 1.	

-----------------------------Solution composition------------------------------

	Elements           Molality       Moles

	Pure water     

----------------------------Description of solution----------------------------

                                       pH  =   7.000    
                                       pe  =   4.000    
       Specific Conductance (uS/cm, 25 oC) = 0
                          Density (g/cm3)  =   0.99705
                        Activity of water  =   1.000
                           Ionic strength  =  1.003e-007
                       Mass of water (kg)  =  1.000e+000
                 Total alkalinity (eq/kg)  =  4.618e-010
                    Total carbon (mol/kg)  =  0.000e+000
                       Total CO2 (mol/kg)  =  0.000e+000
                      Temperature (deg C)  =  25.000
                  Electrical balance (eq)  = -4.618e-010
 Percent error, 100*(Cat-|An|)/(Cat+|An|)  =  -0.23
                               Iterations  =   2
                         Gamma iterations  =   2
                      Osmotic coefficient  =   0.99988
                         Density of water  =   0.99706
                                  Total H  = 1.110124e+002
                                  Total O  = 5.550622e+001

----------------------------Distribution of species----------------------------

                                                           MacInnes   MacInnes
	                               MacInnes    Log       Log         Log 
   Species                 Molality    Activity  Molality  Activity     Gamma

   OH-                   1.005e-007  1.005e-007    -6.998    -6.998    -0.000
   H+                    1.000e-007  1.000e-007    -7.000    -7.000    -0.000
   H2O                   5.551e+001  1.000e+000     1.744    -0.000     0.000

------------------------------Saturation indices-------------------------------

	Phase               SI log IAP  log KT

	H2O(g)           -1.51   -0.00    1.51  H2O

-----------------------------------------
Beginning of batch-reaction calculations.
-----------------------------------------

Reaction step 1.

Using solution 1.	
Using pure phase assemblage 1.	

-------------------------------Phase assemblage--------------------------------

                                                      Moles in assemblage
Phase                  SI log IAP  log KT      Initial       Final       Delta

Gypsum               0.00   -4.58   -4.58   2.000e-001  1.847e-001 -1.526e-002

-----------------------------Solution composition------------------------------

	Elements           Molality       Moles

	Ca               1.525e-002  1.526e-002
	S                1.525e-002  1.526e-002

----------------------------Description of solution----------------------------

                                       pH  =   7.058      Charge balance
                                       pe  =   4.000      Adjusted to redox equilibrium
       Specific Conductance (uS/cm, 25 oC) = 2678
                          Density (g/cm3)  =   0.99915
                        Activity of water  =   1.000
                           Ionic strength  =  6.102e-002
                       Mass of water (kg)  =  1.001e+000
                 Total alkalinity (eq/kg)  =  4.615e-010
                    Total carbon (mol/kg)  =  0.000e+000
                       Total CO2 (mol/kg)  =  0.000e+000
                      Temperature (deg C)  =  25.000
                  Electrical balance (eq)  = -4.618e-010
 Percent error, 100*(Cat-|An|)/(Cat+|An|)  =  -0.00
                               Iterations  =  17
                         Gamma iterations  =   5
                      Osmotic coefficient  =   0.69611
                         Density of water  =   0.99706
                                  Total H  = 1.110735e+002
                                  Total O  = 5.559779e+001

----------------------------Distribution of species----------------------------

                                                           MacInnes   MacInnes
	                               MacInnes    Log       Log         Log 
   Species                 Molality    Activity  Molality  Activity     Gamma

   OH-                   1.563e-007  1.147e-007    -6.806    -6.940    -0.134
   H+                    1.067e-007  8.755e-008    -6.972    -7.058    -0.086
   H2O                   5.551e+001  9.996e-001     1.744    -0.000     0.000
Ca              1.525e-002
   Ca+2                  1.525e-002  5.475e-003    -1.817    -2.262    -0.445
S(6)            1.525e-002
   SO4-2                 1.525e-002  4.802e-003    -1.817    -2.319    -0.502
   HSO4-                 4.915e-008  4.005e-008    -7.309    -7.397    -0.089

------------------------------Saturation indices-------------------------------

	Phase               SI log IAP  log KT

	Anhydrite        -0.22   -4.58   -4.36  CaSO4
	Gypsum            0.00   -4.58   -4.58  CaSO4:2H2O
	H2O(g)           -1.51   -0.00    1.51  H2O
	Portlandite     -10.95  -16.14   -5.19  Ca(OH)2

------------------
End of simulation.
------------------

------------------------------------
Reading input data for simulation 2.
------------------------------------

	reaction 1
		HCl	1.0
		0.25	moles
	surface 1-2
		Hfo_s	gypsum	0.01	50000.
		Hfo_w	gypsum	0.1	50000.
		equilibrate	solution 1
	use solution 1
	use equilibrium_phases 1
	use reaction 1
	use surface 1
	save solution 2
	save equilibrium_phases 2
	save surface 2
	end
------------------------------------------------------
Beginning of initial surface-composition calculations.
------------------------------------------------------

Surface 1.	

Hfo           
	 1.877e-003  Surface charge, eq
	 1.811e-002  sigma, C/m**2
	 3.030e-002  psi, V
	-1.180e+000  -F*psi/RT
	 3.074e-001  exp(-F*psi/RT)
	 5.000e+004  specific area, m**2/mol Gypsum
	 1.000e+004  m**2 for  2.000e-001 moles of Gypsum


Hfo_s         
	 2.000e-003  moles	[0.01 mol/(mol Gypsum)]
	                                   Mole                     Log
	Species               Moles    Fraction    Molality    Molality

	Hfo_sOHCa+2      1.937e-003       0.969  1.936e-003      -2.713
	Hfo_sOH          4.011e-005       0.020  4.009e-005      -4.397
	Hfo_sOH2+        2.105e-005       0.011  2.104e-005      -4.677
	Hfo_sO-          1.751e-006       0.001  1.750e-006      -5.757

Hfo_w         
	 2.000e-002  moles	[0.1 mol/(mol Gypsum)]
	                                   Mole                     Log
	Species               Moles    Fraction    Molality    Molality

	Hfo_wOH          1.004e-002       0.502  1.004e-002      -1.998
	Hfo_wOH2+        5.271e-003       0.264  5.268e-003      -2.278
	Hfo_wOHSO4-2     3.147e-003       0.157  3.145e-003      -2.502
	Hfo_wSO4-        8.280e-004       0.041  8.275e-004      -3.082
	Hfo_wO-          4.384e-004       0.022  4.382e-004      -3.358
	Hfo_wOCa+        2.727e-004       0.014  2.726e-004      -3.564

-----------------------------------------
Beginning of batch-reaction calculations.
-----------------------------------------

Reaction step 1.

Using solution 1.	Solution after simulation 1.
Using surface 1.	Surface assemblage after simulation 2.
Using pure phase assemblage 1.	
Using reaction 1.	

Reaction 1.	Irreversible reaction defined in simulation 2.

	 2.500e-001 moles of the following reaction have been added:

	                 Relative
	Reactant            moles

	HCl                  1.00000

	                 Relative
	Element             moles
	Cl                   1.00000
	H                    1.00000

-------------------------------Phase assemblage--------------------------------

                                                      Moles in assemblage
Phase                  SI log IAP  log KT      Initial       Final       Delta

Gypsum               0.00   -4.58   -4.58   2.000e-001  1.607e-001 -3.933e-002

------------------------------Surface composition------------------------------

Hfo           
	 8.181e-003  Surface charge, eq
	 9.826e-002  sigma, C/m**2
	 5.645e-002  psi, V
	-2.197e+000  -F*psi/RT
	 1.111e-001  exp(-F*psi/RT)
	 5.000e+004  specific area, m**2/mol Gypsum
	 8.033e+003  m**2 for  1.607e-001 moles of Gypsum


Hfo_s         
	 1.607e-003  moles	[0.01 mol/(mol Gypsum)]
	                                   Mole                     Log
	Species               Moles    Fraction    Molality    Molality

	Hfo_sOH2+        1.607e-003       1.000  1.603e-003      -2.795
	Hfo_sOHCa+2      8.495e-008       0.000  8.478e-008      -7.072
	Hfo_sOH          4.573e-009       0.000  4.564e-009      -8.341
	Hfo_sO-          2.982e-016       0.000  2.976e-016     -15.526

Hfo_w         
	 1.607e-002  moles	[0.1 mol/(mol Gypsum)]
	                                   Mole                     Log
	Species               Moles    Fraction    Molality    Molality

	Hfo_wOH2+        1.132e-002       0.705  1.130e-002      -1.947
	Hfo_wSO4-        4.746e-003       0.295  4.737e-003      -2.325
	Hfo_wOH          3.222e-008       0.000  3.216e-008      -7.493
	Hfo_wOHSO4-2     2.671e-008       0.000  2.665e-008      -7.574
	Hfo_wO-          2.101e-015       0.000  2.097e-015     -14.678
	Hfo_wOCa+        5.028e-016       0.000  5.018e-016     -15.299

-----------------------------Solution composition------------------------------

	Elements           Molality       Moles

	Ca               5.669e-002  5.680e-002
	Cl               2.495e-001  2.500e-001
	S                5.371e-002  5.382e-002

----------------------------Description of solution----------------------------

                                       pH  =   0.790      Charge balance
                                       pe  =   4.000      Adjusted to redox equilibrium
       Specific Conductance (uS/cm, 25 oC) = 82761
                          Density (g/cm3)  =   1.00877
                        Activity of water  =   0.991
                           Ionic strength  =  3.939e-001
                       Mass of water (kg)  =  1.002e+000
                 Total alkalinity (eq/kg)  = -2.373e-001
                    Total carbon (mol/kg)  =  0.000e+000
                       Total CO2 (mol/kg)  =  0.000e+000
                      Temperature (deg C)  =  25.000
                  Electrical balance (eq)  = -6.304e-003
 Percent error, 100*(Cat-|An|)/(Cat+|An|)  =  -0.99
                               Iterations  =  38
                         Gamma iterations  =   7
                      Osmotic coefficient  =   0.90794
                         Density of water  =   0.99706
                                  Total H  = 1.114764e+002
                                  Total O  = 5.583462e+001

----------------------------Distribution of species----------------------------

                                                           MacInnes   MacInnes
	                               MacInnes    Log       Log         Log 
   Species                 Molality    Activity  Molality  Activity     Gamma

   H+                    2.021e-001  1.622e-001    -0.694    -0.790    -0.096
   OH-                   1.277e-013  6.137e-014   -12.894   -13.212    -0.318
   H2O                   5.551e+001  9.908e-001     1.744    -0.004     0.000
Ca              5.669e-002
   Ca+2                  5.669e-002  1.613e-002    -1.247    -1.792    -0.546
Cl              2.495e-001
   Cl-                   2.495e-001  1.660e-001    -0.603    -0.780    -0.177
S(6)            5.371e-002
   HSO4-                 3.512e-002  2.563e-002    -1.454    -1.591    -0.137
   SO4-2                 1.859e-002  1.659e-003    -1.731    -2.780    -1.049

------------------------------Saturation indices-------------------------------

	Phase               SI log IAP  log KT

	Anhydrite        -0.21   -4.57   -4.36  CaSO4
	Gypsum            0.00   -4.58   -4.58  CaSO4:2H2O
	H2O(g)           -1.51   -0.00    1.51  H2O
	Portlandite     -23.03  -28.22   -5.19  Ca(OH)2

------------------
End of simulation.
------------------

------------------------------------
Reading input data for simulation 3.
------------------------------------

	use solution 2
	use equilibrium_phases 2
	use surface 2
	end
-----------------------------------------
Beginning of batch-reaction calculations.
-----------------------------------------

Reaction step 1.

Using solution 2.	Solution after simulation 2.
Using surface 2.	Surface assemblage after simulation 2.
Using pure phase assemblage 2.	Pure-phase assemblage after simulation 2.

-------------------------------Phase assemblage--------------------------------

                                                      Moles in assemblage
Phase                  SI log IAP  log KT      Initial       Final       Delta

Gypsum               0.00   -4.58   -4.58   1.607e-001  1.607e-001 -1.737e-014

------------------------------Surface composition------------------------------

Hfo           
	 8.181e-003  Surface charge, eq
	 9.826e-002  sigma, C/m**2
	 5.645e-002  psi, V
	-2.197e+000  -F*psi/RT
	 1.111e-001  exp(-F*psi/RT)
	 5.000e+004  specific area, m**2/mol Gypsum
	 8.033e+003  m**2 for  1.607e-001 moles of Gypsum


Hfo_s         
	 1.607e-003  moles	[0.01 mol/(mol Gypsum)]
	                                   Mole                     Log
	Species               Moles    Fraction    Molality    Molality

	Hfo_sOH2+        1.607e-003       1.000  1.603e-003      -2.795
	Hfo_sOHCa+2      8.495e-008       0.000  8.478e-008      -7.072
	Hfo_sOH          4.573e-009       0.000  4.564e-009      -8.341
	Hfo_sO-          2.982e-016       0.000  2.976e-016     -15.526

Hfo_w         
	 1.607e-002  moles	[0.1 mol/(mol Gypsum)]
	                                   Mole                     Log
	Species               Moles    Fraction    Molality    Molality

	Hfo_wOH2+        1.132e-002       0.705  1.130e-002      -1.947
	Hfo_wSO4-        4.746e-003       0.295  4.737e-003      -2.325
	Hfo_wOH          3.222e-008       0.000  3.216e-008      -7.493
	Hfo_wOHSO4-2     2.671e-008       0.000  2.665e-008      -7.574
	Hfo_wO-          2.101e-015       0.000  2.097e-015     -14.678
	Hfo_wOCa+        5.028e-016       0.000  5.018e-016     -15.299

-----------------------------Solution composition------------------------------

	Elements           Molality       Moles

	Ca               5.669e-002  5.680e-002
	Cl               2.495e-001  2.500e-001
	S                5.371e-002  5.382e-002

----------------------------Description of solution----------------------------

                                       pH  =   0.790      Charge balance
                                       pe  =   4.000      Adjusted to redox equilibrium
       Specific Conductance (uS/cm, 25 oC) = 82761
                          Density (g/cm3)  =   1.00877
                        Activity of water  =   0.991
                           Ionic strength  =  3.939e-001
                       Mass of water (kg)  =  1.002e+000
                 Total alkalinity (eq/kg)  = -2.373e-001
                    Total carbon (mol/kg)  =  0.000e+000
                       Total CO2 (mol/kg)  =  0.000e+000
                      Temperature (deg C)  =  25.000
                  Electrical balance (eq)  = -6.304e-003
 Percent error, 100*(Cat-|An|)/(Cat+|An|)  =  -0.99
                               Iterations  =  36
                         Gamma iterations  =   7
                      Osmotic coefficient  =   0.90794
                         Density of water  =   0.99706
                                  Total H  = 1.114764e+002
                                  Total O  = 5.583462e+001

----------------------------Distribution of species----------------------------

                                                           MacInnes   MacInnes
	                               MacInnes    Log       Log         Log 
   Species                 Molality    Activity  Molality  Activity     Gamma

   H+                    2.021e-001  1.622e-001    -0.694    -0.790    -0.096
   OH-                   1.277e-013  6.137e-014   -12.894   -13.212    -0.318
   H2O                   5.551e+001  9.908e-001     1.744    -0.004     0.000
Ca              5.669e-002
   Ca+2                  5.669e-002  1.613e-002    -1.247    -1.792    -0.546
Cl              2.495e-001
   Cl-                   2.495e-001  1.660e-001    -0.603    -0.780    -0.177
S(6)            5.371e-002
   HSO4-                 3.512e-002  2.563e-002    -1.454    -1.591    -0.137
   SO4-2                 1.859e-002  1.659e-003    -1.731    -2.780    -1.049

------------------------------Saturation indices-------------------------------

	Phase               SI log IAP  log KT

	Anhydrite        -0.21   -4.57   -4.36  CaSO4
	Gypsum            0.00   -4.58   -4.58  CaSO4:2H2O
	H2O(g)           -1.51   -0.00    1.51  H2O
	Portlandite     -23.03  -28.22   -5.19  Ca(OH)2

------------------
End of simulation.
------------------

------------------------------------
Reading input data for simulation 4.
------------------------------------

	solution 1
	equilibrium_phases 1
		gypsum	0.0	0.0
	reaction 1
		CaSO4	1.0
		0.25	moles
	surface 1
		Hfo_s	gypsum	0.01	50000
		Hfo_w	gypsum	0.1	50000
		equilibrate	solution 1
	end
-------------------------------------------
Beginning of initial solution calculations.
-------------------------------------------

Initial solution 1.	

-----------------------------Solution composition------------------------------

	Elements           Molality       Moles

	Pure water     

----------------------------Description of solution----------------------------

                                       pH  =   7.000    
                                       pe  =   4.000    
       Specific Conductance (uS/cm, 25 oC) = 0
                          Density (g/cm3)  =   0.99705
                        Activity of water  =   1.000
                           Ionic strength  =  1.003e-007
                       Mass of water (kg)  =  1.000e+000
                 Total alkalinity (eq/kg)  =  4.618e-010
                    Total carbon (mol/kg)  =  0.000e+000
                       Total CO2 (mol/kg)  =  0.000e+000
                      Temperature (deg C)  =  25.000
                  Electrical balance (eq)  = -4.618e-010
 Percent error, 100*(Cat-|An|)/(Cat+|An|)  =  -0.23
                               Iterations  =   2
                         Gamma iterations  =   2
                      Osmotic coefficient  =   0.99988
                         Density of water  =   0.99706
                                  Total H  = 1.110124e+002
                                  Total O  = 5.550622e+001

----------------------------Distribution of species----------------------------

                                                           MacInnes   MacInnes
	                               MacInnes    Log       Log         Log 
   Species                 Molality    Activity  Molality  Activity     Gamma

   OH-                   1.005e-007  1.005e-007    -6.998    -6.998    -0.000
   H+                    1.000e-007  1.000e-007    -7.000    -7.000    -0.000
   H2O                   5.551e+001  1.000e+000     1.744    -0.000     0.000

------------------------------Saturation indices-------------------------------

	Phase               SI log IAP  log KT

	H2O(g)           -1.51   -0.00    1.51  H2O

------------------------------------------------------
Beginning of initial surface-composition calculations.
------------------------------------------------------

Surface 1.	

Hfo           
	 2.217e-031  Surface charge, eq
	undefined  sigma, C/m**2
	 5.645e-002  psi, V
	-2.197e+000  -F*psi/RT
	 1.111e-001  exp(-F*psi/RT)
	 5.000e+004  specific area, m**2/mol Gypsum
	 0.000e+000  m**2 for  0.000e+000 moles of Gypsum


Hfo_s         
	 0.000e+000  moles	[0.01 mol/(mol Gypsum)]
	                                   Mole                     Log
	Species               Moles    Fraction    Molality    Molality

	Hfo_sOH          1.000e-030       0.000  1.000e-030     -30.000
	Hfo_sOH2+        2.166e-031       0.000  2.166e-031     -30.664
	Hfo_sO-          1.058e-031       0.000  1.058e-031     -30.976

Hfo_w         
	 0.000e+000  moles	[0.1 mol/(mol Gypsum)]
	                                   Mole                     Log
	Species               Moles    Fraction    Molality    Molality

	Hfo_wOH          1.000e-030       0.000  1.000e-030     -30.000
	Hfo_wOH2+        2.166e-031       0.000  2.166e-031     -30.664
	Hfo_wO-          1.058e-031       0.000  1.058e-031     -30.976

-----------------------------------------
Beginning of batch-reaction calculations.
-----------------------------------------

Reaction step 1.

Using solution 1.	
Using surface 1.	Surface assemblage after simulation 4.
Using pure phase assemblage 1.	
Using reaction 1.	

Reaction 1.	Irreversible reaction defined in simulation 4.

	 2.500e-001 moles of the following reaction have been added:

	                 Relative
	Reactant            moles

	CaSO4                1.00000

	                 Relative
	Element             moles
	Ca                   1.00000
	O                    4.00000
	S                    1.00000

-------------------------------Phase assemblage--------------------------------

                                                      Moles in assemblage
Phase                  SI log IAP  log KT      Initial       Final       Delta

Gypsum               0.00   -4.58   -4.58   0.000e+000  2.314e-001  2.314e-001

------------------------------Surface composition------------------------------

Hfo           
	 1.664e-003  Surface charge, eq
	 1.388e-002  sigma, C/m**2
	 2.373e-002  psi, V
	-9.236e-001  -F*psi/RT
	 3.971e-001  exp(-F*psi/RT)
	 5.000e+004  specific area, m**2/mol Gypsum
	 1.157e+004  m**2 for  2.314e-001 moles of Gypsum


Hfo_s         
	 2.314e-003  moles	[0.01 mol/(mol Gypsum)]
	                                   Mole                     Log
	Species               Moles    Fraction    Molality    Molality

	Hfo_sOHCa+2      2.276e-003       0.983  2.295e-003      -2.639
	Hfo_sOH          2.930e-005       0.013  2.954e-005      -4.530
	Hfo_sOH2+        5.985e-006       0.003  6.035e-006      -5.219
	Hfo_sO-          3.286e-006       0.001  3.314e-006      -5.480

Hfo_w         
	 2.314e-002  moles	[0.1 mol/(mol Gypsum)]
	                                   Mole                     Log
	Species               Moles    Fraction    Molality    Molality

	Hfo_wOH          1.408e-002       0.609  1.420e-002      -1.848
	Hfo_wOH2+        2.876e-003       0.124  2.901e-003      -2.538
	Hfo_wOHSO4-2     2.743e-003       0.119  2.766e-003      -2.558
	Hfo_wOCa+        1.580e-003       0.068  1.594e-003      -2.798
	Hfo_wO-          1.579e-003       0.068  1.593e-003      -2.798
	Hfo_wSO4-        2.809e-004       0.012  2.833e-004      -3.548

-----------------------------Solution composition------------------------------

	Elements           Molality       Moles

	Ca               1.485e-002  1.472e-002
	S                1.569e-002  1.555e-002

----------------------------Description of solution----------------------------

                                       pH  =   7.579      Charge balance
                                       pe  =   4.000      Adjusted to redox equilibrium
       Specific Conductance (uS/cm, 25 oC) = 2690
                          Density (g/cm3)  =   0.99916
                        Activity of water  =   1.000
                           Ionic strength  =  6.106e-002
                       Mass of water (kg)  =  9.917e-001
                 Total alkalinity (eq/kg)  =  4.700e-007
                    Total carbon (mol/kg)  =  0.000e+000
                       Total CO2 (mol/kg)  =  0.000e+000
                      Temperature (deg C)  =  25.000
                  Electrical balance (eq)  = -1.664e-003
 Percent error, 100*(Cat-|An|)/(Cat+|An|)  =  -2.75
                               Iterations  =  29
                         Gamma iterations  =   6
                      Osmotic coefficient  =   0.69607
                         Density of water  =   0.99706
                                  Total H  = 1.100873e+002
                                  Total O  = 5.510587e+001

----------------------------Distribution of species----------------------------

                                                           MacInnes   MacInnes
	                               MacInnes    Log       Log         Log 
   Species                 Molality    Activity  Molality  Activity     Gamma

   OH-                   5.175e-007  3.807e-007    -6.286    -6.419    -0.133
   H+                    3.219e-008  2.638e-008    -7.492    -7.579    -0.086
   H2O                   5.551e+001  9.996e-001     1.744    -0.000     0.000
Ca              1.485e-002
   Ca+2                  1.485e-002  5.278e-003    -1.828    -2.278    -0.449
S(6)            1.569e-002
   SO4-2                 1.569e-002  4.982e-003    -1.805    -2.303    -0.498
   HSO4-                 1.537e-008  1.252e-008    -7.813    -7.902    -0.089

------------------------------Saturation indices-------------------------------

	Phase               SI log IAP  log KT

	Anhydrite        -0.22   -4.58   -4.36  CaSO4
	Gypsum            0.00   -4.58   -4.58  CaSO4:2H2O
	H2O(g)           -1.51   -0.00    1.51  H2O
	Portlandite      -9.93  -15.12   -5.19  Ca(OH)2

------------------
End of simulation.
------------------

------------------------------------
Reading input data for simulation 5.
------------------------------------

	solution 1
	equilibrium_phases 1-2
		gypsum	0.0	0.02
	save solution 1-2
	end
-------------------------------------------
Beginning of initial solution calculations.
-------------------------------------------

Initial solution 1.	

-----------------------------Solution composition------------------------------

	Elements           Molality       Moles

	Pure water     

----------------------------Description of solution----------------------------

                                       pH  =   7.000    
                                       pe  =   4.000    
       Specific Conductance (uS/cm, 25 oC) = 0
                          Density (g/cm3)  =   0.99705
                        Activity of water  =   1.000
                           Ionic strength  =  1.003e-007
                       Mass of water (kg)  =  1.000e+000
                 Total alkalinity (eq/kg)  =  4.618e-010
                    Total carbon (mol/kg)  =  0.000e+000
                       Total CO2 (mol/kg)  =  0.000e+000
                      Temperature (deg C)  =  25.000
                  Electrical balance (eq)  = -4.618e-010
 Percent error, 100*(Cat-|An|)/(Cat+|An|)  =  -0.23
                               Iterations  =   2
                         Gamma iterations  =   2
                      Osmotic coefficient  =   0.99988
                         Density of water  =   0.99706
                                  Total H  = 1.110124e+002
                                  Total O  = 5.550622e+001

----------------------------Distribution of species----------------------------

                                                           MacInnes   MacInnes
	                               MacInnes    Log       Log         Log 
   Species                 Molality    Activity  Molality  Activity     Gamma

   OH-                   1.005e-007  1.005e-007    -6.998    -6.998    -0.000
   H+                    1.000e-007  1.000e-007    -7.000    -7.000    -0.000
   H2O                   5.551e+001  1.000e+000     1.744    -0.000     0.000

------------------------------Saturation indices-------------------------------

	Phase               SI log IAP  log KT

	H2O(g)           -1.51   -0.00    1.51  H2O

-----------------------------------------
Beginning of batch-reaction calculations.
-----------------------------------------

Reaction step 1.

Using solution 1.	
Using pure phase assemblage 1.	

-------------------------------Phase assemblage--------------------------------

                                                      Moles in assemblage
Phase                  SI log IAP  log KT      Initial       Final       Delta

Gypsum               0.00   -4.58   -4.58   2.000e-002  4.737e-003 -1.526e-002

-----------------------------Solution composition------------------------------

	Elements           Molality       Moles

	Ca               1.525e-002  1.526e-002
	S                1.525e-002  1.526e-002

----------------------------Description of solution----------------------------

                                       pH  =   7.058      Charge balance
                                       pe  =   4.000      Adjusted to redox equilibrium
       Specific Conductance (uS/cm, 25 oC) = 2678
                          Density (g/cm3)  =   0.99915
                        Activity of water  =   1.000
                           Ionic strength  =  6.102e-002
                       Mass of water (kg)  =  1.001e+000
                 Total alkalinity (eq/kg)  =  4.615e-010
                    Total carbon (mol/kg)  =  0.000e+000
                       Total CO2 (mol/kg)  =  0.000e+000
                      Temperature (deg C)  =  25.000
                  Electrical balance (eq)  = -4.618e-010
 Percent error, 100*(Cat-|An|)/(Cat+|An|)  =  -0.00
                               Iterations  =  17
                         Gamma iterations  =   5
                      Osmotic coefficient  =   0.69611
                         Density of water  =   0.99706
                                  Total H  = 1.110735e+002
                                  Total O  = 5.559779e+001

----------------------------Distribution of species----------------------------

                                                           MacInnes   MacInnes
	                               MacInnes    Log       Log         Log 
   Species                 Molality    Activity  Molality  Activity     Gamma

   OH-                   1.563e-007  1.147e-007    -6.806    -6.940    -0.134
   H+                    1.067e-007  8.755e-008    -6.972    -7.058    -0.086
   H2O                   5.551e+001  9.996e-001     1.744    -0.000     0.000
Ca              1.525e-002
   Ca+2                  1.525e-002  5.475e-003    -1.817    -2.262    -0.445
S(6)            1.525e-002
   SO4-2                 1.525e-002  4.802e-003    -1.817    -2.319    -0.502
   HSO4-                 4.915e-008  4.005e-008    -7.309    -7.397    -0.089

------------------------------Saturation indices-------------------------------

	Phase               SI log IAP  log KT

	Anhydrite        -0.22   -4.58   -4.36  CaSO4
	Gypsum            0.00   -4.58   -4.58  CaSO4:2H2O
	H2O(g)           -1.51   -0.00    1.51  H2O
	Portlandite     -10.95  -16.14   -5.19  Ca(OH)2

------------------
End of simulation.
------------------

------------------------------------
Reading input data for simulation 6.
------------------------------------

	reaction 1
		HCl	1.0
		0.25	moles
	surface 1-2
		Hfo_s	gypsum	0.01	50000
		Hfo_w	gypsum	0.1	50000
		equilibrate	solution 1
	use solution 1
	use equilibrium_phases 1
	use reaction 1
	use surface 1
	save solution 2
	save equilibrium_phases 2
	save surface 2
	end
------------------------------------------------------
Beginning of initial surface-composition calculations.
------------------------------------------------------

Surface 1.	

Hfo           
	 1.877e-004  Surface charge, eq
	 1.811e-002  sigma, C/m**2
	 3.030e-002  psi, V
	-1.180e+000  -F*psi/RT
	 3.074e-001  exp(-F*psi/RT)
	 5.000e+004  specific area, m**2/mol Gypsum
	 1.000e+003  m**2 for  2.000e-002 moles of Gypsum


Hfo_s         
	 2.000e-004  moles	[0.01 mol/(mol Gypsum)]
	                                   Mole                     Log
	Species               Moles    Fraction    Molality    Molality

	Hfo_sOHCa+2      1.937e-004       0.969  1.936e-004      -3.713
	Hfo_sOH          4.011e-006       0.020  4.009e-006      -5.397
	Hfo_sOH2+        2.105e-006       0.011  2.104e-006      -5.677
	Hfo_sO-          1.751e-007       0.001  1.750e-007      -6.757

Hfo_w         
	 2.000e-003  moles	[0.1 mol/(mol Gypsum)]
	                                   Mole                     Log
	Species               Moles    Fraction    Molality    Molality

	Hfo_wOH          1.004e-003       0.502  1.004e-003      -2.998
	Hfo_wOH2+        5.271e-004       0.264  5.268e-004      -3.278
	Hfo_wOHSO4-2     3.147e-004       0.157  3.145e-004      -3.502
	Hfo_wSO4-        8.280e-005       0.041  8.275e-005      -4.082
	Hfo_wO-          4.384e-005       0.022  4.382e-005      -4.358
	Hfo_wOCa+        2.727e-005       0.014  2.726e-005      -4.564

-----------------------------------------
Beginning of batch-reaction calculations.
-----------------------------------------

Reaction step 1.

Using solution 1.	Solution after simulation 5.
Using surface 1.	Surface assemblage after simulation 6.
Using pure phase assemblage 1.	
Using reaction 1.	

Reaction 1.	Irreversible reaction defined in simulation 6.

	 2.500e-001 moles of the following reaction have been added:

	                 Relative
	Reactant            moles

	HCl                  1.00000

	                 Relative
	Element             moles
	Cl                   1.00000
	H                    1.00000

-------------------------------Phase assemblage--------------------------------

                                                      Moles in assemblage
Phase                  SI log IAP  log KT      Initial       Final       Delta

Gypsum              -0.38   -4.96   -4.58   2.000e-002           0 -2.000e-002

------------------------------Surface composition------------------------------

Hfo           
	 6.518e-026  Surface charge, eq
	undefined  sigma, C/m**2
	 5.514e-002  psi, V
	-2.146e+000  -F*psi/RT
	 1.169e-001  exp(-F*psi/RT)
	 5.000e+004  specific area, m**2/mol Gypsum
	 0.000e+000  m**2 for  0.000e+000 moles of Gypsum


Hfo_s         
	 0.000e+000  moles	[0.01 mol/(mol Gypsum)]
	                                   Mole                     Log
	Species               Moles    Fraction    Molality    Molality

	Hfo_sOH2+        4.039e-026       0.000  4.034e-026     -25.394
	Hfo_sOHCa+2      1.309e-030       0.000  1.307e-030     -29.884
	Hfo_sOH          9.692e-032       0.000  9.680e-032     -31.014
	Hfo_sO-          5.327e-039       0.000  5.320e-039     -38.274

Hfo_w         
	 0.000e+000  moles	[0.1 mol/(mol Gypsum)]
	                                   Mole                     Log
	Species               Moles    Fraction    Molality    Molality

	Hfo_wOH2+        3.266e-026       0.000  3.262e-026     -25.487
	Hfo_wSO4-        7.879e-027       0.000  7.869e-027     -26.104
	Hfo_wOH          7.836e-032       0.000  7.826e-032     -31.106
	Hfo_wOHSO4-2     3.738e-032       0.000  3.733e-032     -31.428
	Hfo_wO-          4.307e-039       0.000  4.302e-039     -38.366
	Hfo_wOCa+        7.492e-040       0.000  7.482e-040     -39.126

-----------------------------Solution composition------------------------------

	Elements           Molality       Moles

	Ca               3.544e-002  3.548e-002
	Cl               2.497e-001  2.500e-001
	S                3.562e-002  3.566e-002

----------------------------Description of solution----------------------------

                                       pH  =   0.738      Charge balance
                                       pe  =   4.000      Adjusted to redox equilibrium
       Specific Conductance (uS/cm, 25 oC) = 88765
                          Density (g/cm3)  =   1.00618
                        Activity of water  =   0.991
                           Ionic strength  =  3.423e-001
                       Mass of water (kg)  =  1.001e+000
                 Total alkalinity (eq/kg)  = -2.502e-001
                    Total carbon (mol/kg)  =  0.000e+000
                       Total CO2 (mol/kg)  =  0.000e+000
                      Temperature (deg C)  =  25.000
                  Electrical balance (eq)  =  1.877e-004
 Percent error, 100*(Cat-|An|)/(Cat+|An|)  =   0.03
                               Iterations  =  26
                         Gamma iterations  =   5
                      Osmotic coefficient  =   0.92410
                         Density of water  =   0.99706
                                  Total H  = 1.114039e+002
                                  Total O  = 5.571930e+001

----------------------------Distribution of species----------------------------

                                                           MacInnes   MacInnes
	                               MacInnes    Log       Log         Log 
   Species                 Molality    Activity  Molality  Activity     Gamma

   H+                    2.253e-001  1.828e-001    -0.647    -0.738    -0.091
   OH-                   1.069e-013  5.444e-014   -12.971   -13.264    -0.293
   H2O                   5.551e+001  9.910e-001     1.744    -0.004     0.000
Ca              3.544e-002
   Ca+2                  3.544e-002  1.059e-002    -1.451    -1.975    -0.525
Cl              2.497e-001
   Cl-                   2.497e-001  1.687e-001    -0.603    -0.773    -0.170
S(6)            3.562e-002
   HSO4-                 2.490e-002  1.842e-002    -1.604    -1.735    -0.131
   SO4-2                 1.072e-002  1.057e-003    -1.970    -2.976    -1.006

------------------------------Saturation indices-------------------------------

	Phase               SI log IAP  log KT

	Anhydrite        -0.59   -4.95   -4.36  CaSO4
	Gypsum           -0.38   -4.96   -4.58  CaSO4:2H2O
	H2O(g)           -1.51   -0.00    1.51  H2O
	Portlandite     -23.31  -28.50   -5.19  Ca(OH)2

------------------
End of simulation.
------------------

------------------------------------
Reading input data for simulation 7.
------------------------------------

	use solution 2
	use equilibrium_phases 2
	use surface 2
	end
-----------------------------------------
Beginning of batch-reaction calculations.
-----------------------------------------

Reaction step 1.

Using solution 2.	Solution after simulation 6.
Using surface 2.	Surface assemblage after simulation 6.
Using pure phase assemblage 2.	Pure-phase assemblage after simulation 6.

-------------------------------Phase assemblage--------------------------------

                                                      Moles in assemblage
Phase                  SI log IAP  log KT      Initial       Final       Delta

Gypsum              -0.38   -4.96   -4.58   0.000e+000           0  0.000e+000

------------------------------Surface composition------------------------------

Hfo           
	 7.152e-026  Surface charge, eq
	undefined  sigma, C/m**2
	 4.779e-002  psi, V
	-1.860e+000  -F*psi/RT
	 1.556e-001  exp(-F*psi/RT)
	 5.000e+004  specific area, m**2/mol Gypsum
	 0.000e+000  m**2 for  0.000e+000 moles of Gypsum


Hfo_s         
	 0.000e+000  moles	[0.01 mol/(mol Gypsum)]
	                                   Mole                     Log
	Species               Moles    Fraction    Molality    Molality

	Hfo_sOH2+        4.039e-026       0.000  4.034e-026     -25.394
	Hfo_sOHCa+2      1.742e-030       0.000  1.740e-030     -29.759
	Hfo_sOH          7.278e-032       0.000  7.269e-032     -31.139
	Hfo_sO-          3.005e-039       0.000  3.001e-039     -38.523

Hfo_w         
	 0.000e+000  moles	[0.1 mol/(mol Gypsum)]
	                                   Mole                     Log
	Species               Moles    Fraction    Molality    Molality

	Hfo_wOH2+        3.603e-026       0.000  3.599e-026     -25.444
	Hfo_wSO4-        4.904e-027       0.000  4.898e-027     -26.310
	Hfo_wOH          6.493e-032       0.000  6.485e-032     -31.188
	Hfo_wOHSO4-2     1.747e-032       0.000  1.745e-032     -31.758
	Hfo_wO-          2.681e-039       0.000  2.677e-039     -38.572
	Hfo_wOCa+        8.266e-040       0.000  8.255e-040     -39.083

-----------------------------Solution composition------------------------------

	Elements           Molality       Moles

	Ca               3.544e-002  3.548e-002
	Cl               2.497e-001  2.500e-001
	S                3.562e-002  3.566e-002

----------------------------Description of solution----------------------------

                                       pH  =   0.738      Charge balance
                                       pe  =   4.000      Adjusted to redox equilibrium
       Specific Conductance (uS/cm, 25 oC) = 88765
                          Density (g/cm3)  =   1.00618
                        Activity of water  =   0.991
                           Ionic strength  =  3.423e-001
                       Mass of water (kg)  =  1.001e+000
                 Total alkalinity (eq/kg)  = -2.502e-001
                    Total carbon (mol/kg)  =  0.000e+000
                       Total CO2 (mol/kg)  =  0.000e+000
                      Temperature (deg C)  =  25.000
                  Electrical balance (eq)  =  1.877e-004
 Percent error, 100*(Cat-|An|)/(Cat+|An|)  =   0.03
                               Iterations  =  23
                         Gamma iterations  =   5
                      Osmotic coefficient  =   0.92410
                         Density of water  =   0.99706
                                  Total H  = 1.114039e+002
                                  Total O  = 5.571930e+001

----------------------------Distribution of species----------------------------

                                                           MacInnes   MacInnes
	                               MacInnes    Log       Log         Log 
   Species                 Molality    Activity  Molality  Activity     Gamma

   H+                    2.253e-001  1.828e-001    -0.647    -0.738    -0.091
   OH-                   1.069e-013  5.444e-014   -12.971   -13.264    -0.293
   H2O                   5.551e+001  9.910e-001     1.744    -0.004     0.000
Ca              3.544e-002
   Ca+2                  3.544e-002  1.059e-002    -1.451    -1.975    -0.525
Cl              2.497e-001
   Cl-                   2.497e-001  1.687e-001    -0.603    -0.773    -0.170
S(6)            3.562e-002
   HSO4-                 2.490e-002  1.842e-002    -1.604    -1.735    -0.131
   SO4-2                 1.072e-002  1.057e-003    -1.970    -2.976    -1.006

------------------------------Saturation indices-------------------------------

	Phase               SI log IAP  log KT

	Anhydrite        -0.59   -4.95   -4.36  CaSO4
	Gypsum           -0.38   -4.96   -4.58  CaSO4:2H2O
	H2O(g)           -1.51   -0.00    1.51  H2O
	Portlandite     -23.31  -28.50   -5.19  Ca(OH)2

------------------
End of simulation.
------------------

------------------------------------
Reading input data for simulation 8.
------------------------------------

	solution 1
	equilibrium_phases 1
		gypsum	0.0	0.0
	reaction 1
		CaSO4	1.0
		0.25	moles
	surface 1
		Hfo_s	gypsum	0.01	50000
		Hfo_w	gypsum	0.1	50000
		equilibrate	solution 1
	end
-------------------------------------------
Beginning of initial solution calculations.
-------------------------------------------

Initial solution 1.	

-----------------------------Solution composition------------------------------

	Elements           Molality       Moles

	Pure water     

----------------------------Description of solution----------------------------

                                       pH  =   7.000    
                                       pe  =   4.000    
       Specific Conductance (uS/cm, 25 oC) = 0
                          Density (g/cm3)  =   0.99705
                        Activity of water  =   1.000
                           Ionic strength  =  1.003e-007
                       Mass of water (kg)  =  1.000e+000
                 Total alkalinity (eq/kg)  =  4.618e-010
                    Total carbon (mol/kg)  =  0.000e+000
                       Total CO2 (mol/kg)  =  0.000e+000
                      Temperature (deg C)  =  25.000
                  Electrical balance (eq)  = -4.618e-010
 Percent error, 100*(Cat-|An|)/(Cat+|An|)  =  -0.23
                               Iterations  =   2
                         Gamma iterations  =   2
                      Osmotic coefficient  =   0.99988
                         Density of water  =   0.99706
                                  Total H  = 1.110124e+002
                                  Total O  = 5.550622e+001

----------------------------Distribution of species----------------------------

                                                           MacInnes   MacInnes
	                               MacInnes    Log       Log         Log 
   Species                 Molality    Activity  Molality  Activity     Gamma

   OH-                   1.005e-007  1.005e-007    -6.998    -6.998    -0.000
   H+                    1.000e-007  1.000e-007    -7.000    -7.000    -0.000
   H2O                   5.551e+001  1.000e+000     1.744    -0.000     0.000

------------------------------Saturation indices-------------------------------

	Phase               SI log IAP  log KT

	H2O(g)           -1.51   -0.00    1.51  H2O

------------------------------------------------------
Beginning of initial surface-composition calculations.
------------------------------------------------------

Surface 1.	

Hfo           
	 4.560e-031  Surface charge, eq
	undefined  sigma, C/m**2
	 4.779e-002  psi, V
	-1.860e+000  -F*psi/RT
	 1.556e-001  exp(-F*psi/RT)
	 5.000e+004  specific area, m**2/mol Gypsum
	 0.000e+000  m**2 for  0.000e+000 moles of Gypsum


Hfo_s         
	 0.000e+000  moles	[0.01 mol/(mol Gypsum)]
	                                   Mole                     Log
	Species               Moles    Fraction    Molality    Molality

	Hfo_sOH          1.000e-030       0.000  1.000e-030     -30.000
	Hfo_sOH2+        3.035e-031       0.000  3.035e-031     -30.518
	Hfo_sO-          7.549e-032       0.000  7.549e-032     -31.122

Hfo_w         
	 0.000e+000  moles	[0.1 mol/(mol Gypsum)]
	                                   Mole                     Log
	Species               Moles    Fraction    Molality    Molality

	Hfo_wOH          1.000e-030       0.000  1.000e-030     -30.000
	Hfo_wOH2+        3.035e-031       0.000  3.035e-031     -30.518
	Hfo_wO-          7.549e-032       0.000  7.549e-032     -31.122

-----------------------------------------
Beginning of batch-reaction calculations.
-----------------------------------------

Reaction step 1.

Using solution 1.	
Using surface 1.	Surface assemblage after simulation 8.
Using pure phase assemblage 1.	
Using reaction 1.	

Reaction 1.	Irreversible reaction defined in simulation 8.

	 2.500e-001 moles of the following reaction have been added:

	                 Relative
	Reactant            moles

	CaSO4                1.00000

	                 Relative
	Element             moles
	Ca                   1.00000
	O                    4.00000
	S                    1.00000

-------------------------------Phase assemblage--------------------------------

                                                      Moles in assemblage
Phase                  SI log IAP  log KT      Initial       Final       Delta

Gypsum               0.00   -4.58   -4.58   0.000e+000  2.314e-001  2.314e-001

------------------------------Surface composition------------------------------

Hfo           
	 1.664e-003  Surface charge, eq
	 1.388e-002  sigma, C/m**2
	 2.373e-002  psi, V
	-9.236e-001  -F*psi/RT
	 3.971e-001  exp(-F*psi/RT)
	 5.000e+004  specific area, m**2/mol Gypsum
	 1.157e+004  m**2 for  2.314e-001 moles of Gypsum


Hfo_s         
	 2.314e-003  moles	[0.01 mol/(mol Gypsum)]
	                                   Mole                     Log
	Species               Moles    Fraction    Molality    Molality

	Hfo_sOHCa+2      2.276e-003       0.983  2.295e-003      -2.639
	Hfo_sOH          2.930e-005       0.013  2.954e-005      -4.530
	Hfo_sOH2+        5.985e-006       0.003  6.035e-006      -5.219
	Hfo_sO-          3.286e-006       0.001  3.314e-006      -5.480

Hfo_w         
	 2.314e-002  moles	[0.1 mol/(mol Gypsum)]
	                                   Mole                     Log
	Species               Moles    Fraction    Molality    Molality

	Hfo_wOH          1.408e-002       0.609  1.420e-002      -1.848
	Hfo_wOH2+        2.876e-003       0.124  2.901e-003      -2.538
	Hfo_wOHSO4-2     2.743e-003       0.119  2.766e-003      -2.558
	Hfo_wOCa+        1.580e-003       0.068  1.594e-003      -2.798
	Hfo_wO-          1.579e-003       0.068  1.593e-003      -2.798
	Hfo_wSO4-        2.809e-004       0.012  2.833e-004      -3.548

-----------------------------Solution composition------------------------------

	Elements           Molality       Moles

	Ca               1.485e-002  1.472e-002
	S                1.569e-002  1.555e-002

----------------------------Description of solution----------------------------

                                       pH  =   7.579      Charge balance
                                       pe  =   4.000      Adjusted to redox equilibrium
       Specific Conductance (uS/cm, 25 oC) = 2690
                          Density (g/cm3)  =   0.99916
                        Activity of water  =   1.000
                           Ionic strength  =  6.106e-002
                       Mass of water (kg)  =  9.917e-001
                 Total alkalinity (eq/kg)  =  4.700e-007
                    Total carbon (mol/kg)  =  0.000e+000
                       Total CO2 (mol/kg)  =  0.000e+000
                      Temperature (deg C)  =  25.000
                  Electrical balance (eq)  = -1.664e-003
 Percent error, 100*(Cat-|An|)/(Cat+|An|)  =  -2.75
                               Iterations  =  28
                         Gamma iterations  =   6
                      Osmotic coefficient  =   0.69607
                         Density of water  =   0.99706
                                  Total H  = 1.100873e+002
                                  Total O  = 5.510587e+001

----------------------------Distribution of species----------------------------

                                                           MacInnes   MacInnes
	                               MacInnes    Log       Log         Log 
   Species                 Molality    Activity  Molality  Activity     Gamma

   OH-                   5.175e-007  3.807e-007    -6.286    -6.419    -0.133
   H+                    3.219e-008  2.638e-008    -7.492    -7.579    -0.086
   H2O                   5.551e+001  9.996e-001     1.744    -0.000     0.000
Ca              1.485e-002
   Ca+2                  1.485e-002  5.278e-003    -1.828    -2.278    -0.449
S(6)            1.569e-002
   SO4-2                 1.569e-002  4.982e-003    -1.805    -2.303    -0.498
   HSO4-                 1.537e-008  1.252e-008    -7.813    -7.902    -0.089

------------------------------Saturation indices-------------------------------

	Phase               SI log IAP  log KT

	Anhydrite        -0.22   -4.58   -4.36  CaSO4
	Gypsum            0.00   -4.58   -4.58  CaSO4:2H2O
	H2O(g)           -1.51   -0.00    1.51  H2O
	Portlandite      -9.93  -15.12   -5.19  Ca(OH)2

------------------
End of simulation.
------------------

------------------------------------
Reading input data for simulation 9.
------------------------------------

	solution 1
	equilibrium_phases 1-2
		gypsum	0.0	0.02
	save solution 1-2
	end
-------------------------------------------
Beginning of initial solution calculations.
-------------------------------------------

Initial solution 1.	

-----------------------------Solution composition------------------------------

	Elements           Molality       Moles

	Pure water     

----------------------------Description of solution----------------------------

                                       pH  =   7.000    
                                       pe  =   4.000    
       Specific Conductance (uS/cm, 25 oC) = 0
                          Density (g/cm3)  =   0.99705
                        Activity of water  =   1.000
                           Ionic strength  =  1.003e-007
                       Mass of water (kg)  =  1.000e+000
                 Total alkalinity (eq/kg)  =  4.618e-010
                    Total carbon (mol/kg)  =  0.000e+000
                       Total CO2 (mol/kg)  =  0.000e+000
                      Temperature (deg C)  =  25.000
                  Electrical balance (eq)  = -4.618e-010
 Percent error, 100*(Cat-|An|)/(Cat+|An|)  =  -0.23
                               Iterations  =   2
                         Gamma iterations  =   2
                      Osmotic coefficient  =   0.99988
                         Density of water  =   0.99706
                                  Total H  = 1.110124e+002
                                  Total O  = 5.550622e+001

----------------------------Distribution of species----------------------------

                                                           MacInnes   MacInnes
	                               MacInnes    Log       Log         Log 
   Species                 Molality    Activity  Molality  Activity     Gamma

   OH-                   1.005e-007  1.005e-007    -6.998    -6.998    -0.000
   H+                    1.000e-007  1.000e-007    -7.000    -7.000    -0.000
   H2O                   5.551e+001  1.000e+000     1.744    -0.000     0.000

------------------------------Saturation indices-------------------------------

	Phase               SI log IAP  log KT

	H2O(g)           -1.51   -0.00    1.51  H2O

-----------------------------------------
Beginning of batch-reaction calculations.
-----------------------------------------

Reaction step 1.

Using solution 1.	
Using pure phase assemblage 1.	

-------------------------------Phase assemblage--------------------------------

                                                      Moles in assemblage
Phase                  SI log IAP  log KT      Initial       Final       Delta

Gypsum               0.00   -4.58   -4.58   2.000e-002  4.737e-003 -1.526e-002

-----------------------------Solution composition------------------------------

	Elements           Molality       Moles

	Ca               1.525e-002  1.526e-002
	S                1.525e-002  1.526e-002

----------------------------Description of solution----------------------------

                                       pH  =   7.058      Charge balance
                                       pe  =   4.000      Adjusted to redox equilibrium
       Specific Conductance (uS/cm, 25 oC) = 2678
                          Density (g/cm3)  =   0.99915
                        Activity of water  =   1.000
                           Ionic strength  =  6.102e-002
                       Mass of water (kg)  =  1.001e+000
                 Total alkalinity (eq/kg)  =  4.615e-010
                    Total carbon (mol/kg)  =  0.000e+000
                       Total CO2 (mol/kg)  =  0.000e+000
                      Temperature (deg C)  =  25.000
                  Electrical balance (eq)  = -4.618e-010
 Percent error, 100*(Cat-|An|)/(Cat+|An|)  =  -0.00
                               Iterations  =  17
                         Gamma iterations  =   5
                      Osmotic coefficient  =   0.69611
                         Density of water  =   0.99706
                                  Total H  = 1.110735e+002
                                  Total O  = 5.559779e+001

----------------------------Distribution of species----------------------------

                                                           MacInnes   MacInnes
	                               MacInnes    Log       Log         Log 
   Species                 Molality    Activity  Molality  Activity     Gamma

   OH-                   1.563e-007  1.147e-007    -6.806    -6.940    -0.134
   H+                    1.067e-007  8.755e-008    -6.972    -7.058    -0.086
   H2O                   5.551e+001  9.996e-001     1.744    -0.000     0.000
Ca              1.525e-002
   Ca+2                  1.525e-002  5.475e-003    -1.817    -2.262    -0.445
S(6)            1.525e-002
   SO4-2                 1.525e-002  4.802e-003    -1.817    -2.319    -0.502
   HSO4-                 4.915e-008  4.005e-008    -7.309    -7.397    -0.089

------------------------------Saturation indices-------------------------------

	Phase               SI log IAP  log KT

	Anhydrite        -0.22   -4.58   -4.36  CaSO4
	Gypsum            0.00   -4.58   -4.58  CaSO4:2H2O
	H2O(g)           -1.51   -0.00    1.51  H2O
	Portlandite     -10.95  -16.14   -5.19  Ca(OH)2

------------------
End of simulation.
------------------

-------------------------------------
Reading input data for simulation 10.
-------------------------------------

	reaction 1
		HCl	1.0
		0.25	moles
	surface 1-2
		no_edl
		Hfo_s	gypsum	0.01	50000
		Hfo_w	gypsum	0.1	50000
		equilibrate	solution 1
	use solution 1
	use equilibrium_phases 1
	use reaction 1
	use surface 1
	save solution 2
	save equilibrium_phases 2
	save surface 2
	end
------------------------------------------------------
Beginning of initial surface-composition calculations.
------------------------------------------------------

Surface 1.	

Hfo           
	 1.584e-003  Surface charge, eq
Hfo_s         
	 2.000e-004  moles
	                                   Mole                     Log
	Species               Moles    Fraction    Molality    Molality

	Hfo_sOHCa+2      1.989e-004       0.995  1.988e-004      -3.702
	Hfo_sOH2+        6.646e-007       0.003  6.643e-007      -6.178
	Hfo_sOH          3.893e-007       0.002  3.891e-007      -6.410
	Hfo_sO-          5.224e-009       0.000  5.221e-009      -8.282

Hfo           
	 1.584e-003  Surface charge, eq
Hfo_w         
	 2.000e-003  moles
	                                   Mole                     Log
	Species               Moles    Fraction    Molality    Molality

	Hfo_wOH2+        1.192e-003       0.596  1.192e-003      -2.924
	Hfo_wOH          6.984e-004       0.349  6.980e-004      -3.156
	Hfo_wOCa+        6.169e-005       0.031  6.166e-005      -4.210
	Hfo_wOHSO4-2     2.068e-005       0.010  2.067e-005      -4.685
	Hfo_wSO4-        1.770e-005       0.009  1.769e-005      -4.752
	Hfo_wO-          9.371e-006       0.005  9.366e-006      -5.028

-----------------------------------------
Beginning of batch-reaction calculations.
-----------------------------------------

Reaction step 1.

Using solution 1.	Solution after simulation 9.
Using surface 1.	Surface assemblage after simulation 10.
Using pure phase assemblage 1.	
Using reaction 1.	

Reaction 1.	Irreversible reaction defined in simulation 10.

	 2.500e-001 moles of the following reaction have been added:

	                 Relative
	Reactant            moles

	HCl                  1.00000

	                 Relative
	Element             moles
	Cl                   1.00000
	H                    1.00000

-------------------------------Phase assemblage--------------------------------

                                                      Moles in assemblage
Phase                  SI log IAP  log KT      Initial       Final       Delta

Gypsum              -0.38   -4.96   -4.58   2.000e-002           0 -2.000e-002

------------------------------Surface composition------------------------------

Hfo           
	 8.044e-026  Surface charge, eq
Hfo_s         
	 0.000e+000  moles
	                                   Mole                     Log
	Species               Moles    Fraction    Molality    Molality

	Hfo_sOH2+        4.035e-026       0.000  4.030e-026     -25.395
	Hfo_sOHCa+2      1.115e-029       0.000  1.114e-029     -28.953
	Hfo_sOH          1.127e-032       0.000  1.126e-032     -31.948
	Hfo_sO-          7.216e-041       0.000  7.207e-041     -40.142

Hfo           
	 8.044e-026  Surface charge, eq
Hfo_w         
	 0.000e+000  moles
	                                   Mole                     Log
	Species               Moles    Fraction    Molality    Molality

	Hfo_wOH2+        4.020e-026       0.000  4.015e-026     -25.396
	Hfo_wSO4-        1.308e-028       0.000  1.306e-028     -27.884
	Hfo_wOH          1.123e-032       0.000  1.122e-032     -31.950
	Hfo_wOHSO4-2     7.225e-035       0.000  7.216e-035     -34.142
	Hfo_wOCa+        9.158e-040       0.000  9.147e-040     -39.039
	Hfo_wO-          7.188e-041       0.000  7.179e-041     -40.144

-----------------------------Solution composition------------------------------

	Elements           Molality       Moles

	Ca               3.548e-002  3.552e-002
	Cl               2.497e-001  2.500e-001
	S                3.526e-002  3.530e-002

----------------------------Description of solution----------------------------

                                       pH  =   0.736      Charge balance
                                       pe  =   4.000      Adjusted to redox equilibrium
       Specific Conductance (uS/cm, 25 oC) = 89016
                          Density (g/cm3)  =   1.00615
                        Activity of water  =   0.991
                           Ionic strength  =  3.424e-001
                       Mass of water (kg)  =  1.001e+000
                 Total alkalinity (eq/kg)  = -2.508e-001
                    Total carbon (mol/kg)  =  0.000e+000
                       Total CO2 (mol/kg)  =  0.000e+000
                      Temperature (deg C)  =  25.000
                  Electrical balance (eq)  =  1.584e-003
 Percent error, 100*(Cat-|An|)/(Cat+|An|)  =   0.27
                               Iterations  =  26
                         Gamma iterations  =   5
                      Osmotic coefficient  =   0.92423
                         Density of water  =   0.99706
                                  Total H  = 1.114046e+002
                                  Total O  = 5.571793e+001

----------------------------Distribution of species----------------------------

                                                           MacInnes   MacInnes
	                               MacInnes    Log       Log         Log 
   Species                 Molality    Activity  Molality  Activity     Gamma

   H+                    2.262e-001  1.836e-001    -0.646    -0.736    -0.091
   OH-                   1.065e-013  5.423e-014   -12.973   -13.266    -0.293
   H2O                   5.551e+001  9.909e-001     1.744    -0.004     0.000
Ca              3.548e-002
   Ca+2                  3.548e-002  1.060e-002    -1.450    -1.975    -0.525
Cl              2.497e-001
   Cl-                   2.497e-001  1.687e-001    -0.603    -0.773    -0.170
S(6)            3.526e-002
   HSO4-                 2.466e-002  1.825e-002    -1.608    -1.739    -0.131
   SO4-2                 1.059e-002  1.043e-003    -1.975    -2.982    -1.007

------------------------------Saturation indices-------------------------------

	Phase               SI log IAP  log KT

	Anhydrite        -0.59   -4.96   -4.36  CaSO4
	Gypsum           -0.38   -4.96   -4.58  CaSO4:2H2O
	H2O(g)           -1.51   -0.00    1.51  H2O
	Portlandite     -23.32  -28.51   -5.19  Ca(OH)2

------------------
End of simulation.
------------------

-------------------------------------
Reading input data for simulation 11.
-------------------------------------

	use solution 2
	use equilibrium_phases 2
	use surface 2
	end
-----------------------------------------
Beginning of batch-reaction calculations.
-----------------------------------------

Reaction step 1.

Using solution 2.	Solution after simulation 10.
Using surface 2.	Surface assemblage after simulation 10.
Using pure phase assemblage 2.	Pure-phase assemblage after simulation 10.

-------------------------------Phase assemblage--------------------------------

                                                      Moles in assemblage
Phase                  SI log IAP  log KT      Initial       Final       Delta

Gypsum              -0.38   -4.96   -4.58   0.000e+000           0  0.000e+000

------------------------------Surface composition------------------------------

Hfo           
	 8.044e-026  Surface charge, eq
Hfo_s         
	 0.000e+000  moles
	                                   Mole                     Log
	Species               Moles    Fraction    Molality    Molality

	Hfo_sOH2+        4.035e-026       0.000  4.030e-026     -25.395
	Hfo_sOHCa+2      1.115e-029       0.000  1.114e-029     -28.953
	Hfo_sOH          1.127e-032       0.000  1.126e-032     -31.948
	Hfo_sO-          7.216e-041       0.000  7.207e-041     -40.142

Hfo           
	 8.044e-026  Surface charge, eq
Hfo_w         
	 0.000e+000  moles
	                                   Mole                     Log
	Species               Moles    Fraction    Molality    Molality

	Hfo_wOH2+        4.020e-026       0.000  4.015e-026     -25.396
	Hfo_wSO4-        1.308e-028       0.000  1.306e-028     -27.884
	Hfo_wOH          1.123e-032       0.000  1.122e-032     -31.950
	Hfo_wOHSO4-2     7.225e-035       0.000  7.216e-035     -34.142
	Hfo_wOCa+        9.158e-040       0.000  9.147e-040     -39.039
	Hfo_wO-          7.188e-041       0.000  7.178e-041     -40.144

-----------------------------Solution composition------------------------------

	Elements           Molality       Moles

	Ca               3.548e-002  3.552e-002
	Cl               2.497e-001  2.500e-001
	S                3.526e-002  3.530e-002

----------------------------Description of solution----------------------------

                                       pH  =   0.736      Charge balance
                                       pe  =   4.000      Adjusted to redox equilibrium
       Specific Conductance (uS/cm, 25 oC) = 89016
                          Density (g/cm3)  =   1.00615
                        Activity of water  =   0.991
                           Ionic strength  =  3.424e-001
                       Mass of water (kg)  =  1.001e+000
                 Total alkalinity (eq/kg)  = -2.508e-001
                    Total carbon (mol/kg)  =  0.000e+000
                       Total CO2 (mol/kg)  =  0.000e+000
                      Temperature (deg C)  =  25.000
                  Electrical balance (eq)  =  1.584e-003
 Percent error, 100*(Cat-|An|)/(Cat+|An|)  =   0.27
                               Iterations  =  22
                         Gamma iterations  =   5
                      Osmotic coefficient  =   0.92423
                         Density of water  =   0.99706
                                  Total H  = 1.114046e+002
                                  Total O  = 5.571793e+001

----------------------------Distribution of species----------------------------

                                                           MacInnes   MacInnes
	                               MacInnes    Log       Log         Log 
   Species                 Molality    Activity  Molality  Activity     Gamma

   H+                    2.262e-001  1.836e-001    -0.646    -0.736    -0.091
   OH-                   1.065e-013  5.423e-014   -12.973   -13.266    -0.293
   H2O                   5.551e+001  9.909e-001     1.744    -0.004     0.000
Ca              3.548e-002
   Ca+2                  3.548e-002  1.060e-002    -1.450    -1.975    -0.525
Cl              2.497e-001
   Cl-                   2.497e-001  1.687e-001    -0.603    -0.773    -0.170
S(6)            3.526e-002
   HSO4-                 2.466e-002  1.825e-002    -1.608    -1.739    -0.131
   SO4-2                 1.059e-002  1.043e-003    -1.975    -2.982    -1.007

------------------------------Saturation indices-------------------------------

	Phase               SI log IAP  log KT

	Anhydrite        -0.59   -4.96   -4.36  CaSO4
	Gypsum           -0.38   -4.96   -4.58  CaSO4:2H2O
	H2O(g)           -1.51   -0.00    1.51  H2O
	Portlandite     -23.32  -28.51   -5.19  Ca(OH)2

------------------
End of simulation.
------------------

-------------------------------------
Reading input data for simulation 12.
-------------------------------------

	solution 1
	equilibrium_phases 1
		gypsum	0.0	0.0
	reaction 1
		CaSO4	1.0
		0.25	moles
	surface 1
		no_edl
		Hfo_s	gypsum	0.01	50000
		Hfo_w	gypsum	0.1	50000
		equilibrate	solution 1
	end
-------------------------------------------
Beginning of initial solution calculations.
-------------------------------------------

Initial solution 1.	

-----------------------------Solution composition------------------------------

	Elements           Molality       Moles

	Pure water     

----------------------------Description of solution----------------------------

                                       pH  =   7.000    
                                       pe  =   4.000    
       Specific Conductance (uS/cm, 25 oC) = 0
                          Density (g/cm3)  =   0.99705
                        Activity of water  =   1.000
                           Ionic strength  =  1.003e-007
                       Mass of water (kg)  =  1.000e+000
                 Total alkalinity (eq/kg)  =  4.618e-010
                    Total carbon (mol/kg)  =  0.000e+000
                       Total CO2 (mol/kg)  =  0.000e+000
                      Temperature (deg C)  =  25.000
                  Electrical balance (eq)  = -4.618e-010
 Percent error, 100*(Cat-|An|)/(Cat+|An|)  =  -0.23
                               Iterations  =   2
                         Gamma iterations  =   2
                      Osmotic coefficient  =   0.99988
                         Density of water  =   0.99706
                                  Total H  = 1.110124e+002
                                  Total O  = 5.550622e+001

----------------------------Distribution of species----------------------------

                                                           MacInnes   MacInnes
	                               MacInnes    Log       Log         Log 
   Species                 Molality    Activity  Molality  Activity     Gamma

   OH-                   1.005e-007  1.005e-007    -6.998    -6.998    -0.000
   H+                    1.000e-007  1.000e-007    -7.000    -7.000    -0.000
   H2O                   5.551e+001  1.000e+000     1.744    -0.000     0.000

------------------------------Saturation indices-------------------------------

	Phase               SI log IAP  log KT

	H2O(g)           -1.51   -0.00    1.51  H2O

------------------------------------------------------
Beginning of initial surface-composition calculations.
------------------------------------------------------

Surface 1.	

Hfo           
	 3.876e-030  Surface charge, eq
Hfo_s         
	 0.000e+000  moles
	                                   Mole                     Log
	Species               Moles    Fraction    Molality    Molality

	Hfo_sOH2+        1.950e-030       0.000  1.950e-030     -29.710
	Hfo_sOH          1.000e-030       0.000  1.000e-030     -30.000
	Hfo_sO-          1.175e-032       0.000  1.175e-032     -31.930

Hfo           
	 3.876e-030  Surface charge, eq
Hfo_w         
	 0.000e+000  moles
	                                   Mole                     Log
	Species               Moles    Fraction    Molality    Molality

	Hfo_wOH2+        1.950e-030       0.000  1.950e-030     -29.710
	Hfo_wOH          1.000e-030       0.000  1.000e-030     -30.000
	Hfo_wO-          1.175e-032       0.000  1.175e-032     -31.930

-----------------------------------------
Beginning of batch-reaction calculations.
-----------------------------------------

Reaction step 1.

Using solution 1.	
Using surface 1.	Surface assemblage after simulation 12.
Using pure phase assemblage 1.	
Using reaction 1.	

Reaction 1.	Irreversible reaction defined in simulation 12.

	 2.500e-001 moles of the following reaction have been added:

	                 Relative
	Reactant            moles

	CaSO4                1.00000

	                 Relative
	Element             moles
	Ca                   1.00000
	O                    4.00000
	S                    1.00000

-------------------------------Phase assemblage--------------------------------

                                                      Moles in assemblage
Phase                  SI log IAP  log KT      Initial       Final       Delta

Gypsum               0.00   -4.58   -4.58   0.000e+000  2.309e-001  2.309e-001

------------------------------Surface composition------------------------------

Hfo           
	 1.158e-002  Surface charge, eq
Hfo_s         
	 2.309e-003  moles
	                                   Mole                     Log
	Species               Moles    Fraction    Molality    Molality

	Hfo_sOHCa+2      2.301e-003       0.996  2.320e-003      -2.635
	Hfo_sOH          5.783e-006       0.003  5.831e-006      -5.234
	Hfo_sOH2+        2.146e-006       0.001  2.164e-006      -5.665
	Hfo_sO-          3.570e-007       0.000  3.600e-007      -6.444

Hfo           
	 1.158e-002  Surface charge, eq
Hfo_w         
	 2.309e-002  moles
	                                   Mole                     Log
	Species               Moles    Fraction    Molality    Molality

	Hfo_wOH          1.287e-002       0.557  1.298e-002      -1.887
	Hfo_wOH2+        4.774e-003       0.207  4.814e-003      -2.317
	Hfo_wOCa+        4.072e-003       0.176  4.106e-003      -2.387
	Hfo_wO-          7.945e-004       0.034  8.012e-004      -3.096
	Hfo_wOHSO4-2     4.894e-004       0.021  4.935e-004      -3.307
	Hfo_wSO4-        9.104e-005       0.004  9.180e-005      -4.037

-----------------------------Solution composition------------------------------

	Elements           Molality       Moles

	Ca               1.285e-002  1.274e-002
	S                1.869e-002  1.854e-002

----------------------------Description of solution----------------------------

                                       pH  =   7.721      Charge balance
                                       pe  =   4.000      Adjusted to redox equilibrium
       Specific Conductance (uS/cm, 25 oC) = 2835
                          Density (g/cm3)  =   0.99929
                        Activity of water  =   1.000
                           Ionic strength  =  6.308e-002
                       Mass of water (kg)  =  9.917e-001
                 Total alkalinity (eq/kg)  =  6.736e-007
                    Total carbon (mol/kg)  =  0.000e+000
                       Total CO2 (mol/kg)  =  0.000e+000
                      Temperature (deg C)  =  25.000
                  Electrical balance (eq)  = -1.158e-002
 Percent error, 100*(Cat-|An|)/(Cat+|An|)  = -18.52
                               Iterations  =  29
                         Gamma iterations  =   6
                      Osmotic coefficient  =   0.69413
                         Density of water  =   0.99706
                                  Total H  = 1.100891e+002
                                  Total O  = 5.511868e+001

----------------------------Distribution of species----------------------------

                                                           MacInnes   MacInnes
	                               MacInnes    Log       Log         Log 
   Species                 Molality    Activity  Molality  Activity     Gamma

   OH-                   7.109e-007  5.277e-007    -6.148    -6.278    -0.129
   H+                    2.349e-008  1.903e-008    -7.629    -7.721    -0.091
   H2O                   5.551e+001  9.996e-001     1.744    -0.000     0.000
Ca              1.285e-002
   Ca+2                  1.285e-002  4.263e-003    -1.891    -2.370    -0.479
S(6)            1.869e-002
   SO4-2                 1.869e-002  6.168e-003    -1.728    -2.210    -0.481
   HSO4-                 1.380e-008  1.118e-008    -7.860    -7.952    -0.091

------------------------------Saturation indices-------------------------------

	Phase               SI log IAP  log KT

	Anhydrite        -0.22   -4.58   -4.36  CaSO4
	Gypsum            0.00   -4.58   -4.58  CaSO4:2H2O
	H2O(g)           -1.51   -0.00    1.51  H2O
	Portlandite      -9.74  -14.93   -5.19  Ca(OH)2

------------------
End of simulation.
------------------

-------------------------------------
Reading input data for simulation 13.
-------------------------------------

-----------
End of run.
-----------

