   Input file: transport.dl
  Output file: transport.dl.out
Database file: ../database/phreeqc.dat

------------------
Reading data base.
------------------

	SOLUTION_MASTER_SPECIES
	SOLUTION_SPECIES
	PHASES
	EXCHANGE_MASTER_SPECIES
	EXCHANGE_SPECIES
	SURFACE_MASTER_SPECIES
	SURFACE_SPECIES
	RATES
	END
------------------------------------
Reading input data for simulation 1.
------------------------------------

	DATABASE ../database/phreeqc.dat
	knobs
		logfile
	PRINT
		status false
	SOLUTION 0
		ph	3.3
		temp	25
		units mmol/l
		Ca	11.6
		Mg	15.8
		Na	9.4
		K	0.2
		Fe	52.4
		Mn	1.34
		Al	10.5
		Cu	2.4
		Zn	0.33
		S(6)	100 	charge
		Cl	9.5
		C(4)	0.1	CO2(g)  -3.5
	SOLUTION 1-5
		ph	7.19
		temp	25
		units mmol/l
		O(0)	0.22
		Ca	1.2	charge
		Mg	0.37
		Na	0.96
		K	0.03
		Fe	3.5e-7	mol/l
		Mn	1.0e-7	mol/l
		Al	1.8e-6  mol/l
		Cu	1.5e-7	mol/l
		Zn	2.5e-7	mol/l
		S(6)	0.7
		Cl	0.48
		Alkalinity	2.3
	SURFACE 1-5
		diffuse_layer  1e-9  # takes 10 time longer, calculates diffuse layer composition
		SurfOH	0.15	600.	65.
	PURE_PHASES 1-5
		MnO2		0.0	0.045
		Fe(OH)3		0.0	0.73
		Calcite		0.0	0.14
		Gypsum 		0.0	0.0
		Al(OH)3(a)	0.0	0.0
		AlOHSO4		0.0	0.0
	USE PURE_PHASES none
	USE SURFACE none
	ADVECTION
		cells 		5
		shifts		25
		print_frequency	5
	SURFACE_MASTER_SPECIES
		Surf	SurfOH
	SURFACE_SPECIES
		SurfOH = SurfOH
		log_k	0.0
		SurfOH  + H+ = SurfOH2+
		log_k	7.29
		SurfOH = SurfO- + H+
		log_k	-8.93
		SurfOH + Cu+2 = SurfOCu+ + H+
		log_k	0.6
		SurfOH + Zn+2 = SurfOZn+ + H+
		log_k	-1.99
		SurfOH + Mn+2 = SurfOMn+ + H+
		log_k	-2.6
	PHASES
		Fe(OH)3
		Fe(OH)3 + 3 H+ = Fe+3 + 3 H2O                                                 
		log_k	4.891
		MnO2
		MnO2 + 4 H+ + 2 e- = Mn+2 + 2 H2O                                          
		log_k		41.380
		delta_h	-65.110 kcal
		Al(OH)3(a)
		Al(OH)3 + 3H+ = Al+3 + 3H2O 
		log_k		10.8
		delta_h	-26.5 kcal
		AlOHSO4
		AlOHSO4 + H+ = Al+3 + SO4-2 + H2O 
		log_k	-2.2
	END
-------------------------------------------
Beginning of initial solution calculations.
-------------------------------------------

Initial solution 0.	

-----------------------------Solution composition------------------------------

	Elements           Molality       Moles

	Al               1.065e-002  1.065e-002
	C(4)             1.029e-005  1.029e-005  Equilibrium with CO2(g)
	Ca               1.177e-002  1.177e-002
	Cl               9.640e-003  9.640e-003
	Cu               2.435e-003  2.435e-003
	Fe               5.317e-002  5.317e-002
	K                2.029e-004  2.029e-004
	Mg               1.603e-002  1.603e-002
	Mn               1.360e-003  1.360e-003
	Na               9.538e-003  9.538e-003
	S(6)             1.020e-001  1.020e-001  Charge balance
	Zn               3.348e-004  3.348e-004

----------------------------Description of solution----------------------------

                                       pH  =   3.300    
                                       pe  =   4.000    
       Specific Conductance (uS/cm, 25 oC) = 9069
                          Density (g/cm3)  =   1.00992
                        Activity of water  =   0.997
                           Ionic strength  =  2.096e-001
                       Mass of water (kg)  =  1.000e+000
                 Total alkalinity (eq/kg)  = -1.672e-003
                       Total CO2 (mol/kg)  =  1.029e-005
                      Temperature (deg C)  =  25.000
                  Electrical balance (eq)  = -5.741e-011
 Percent error, 100*(Cat-|An|)/(Cat+|An|)  =  -0.00
                               Iterations  =   9
                                  Total H  = 1.110141e+002
                                  Total O  = 5.591406e+001

----------------------------Distribution of species----------------------------

                                                   Log       Log         Log 
   Species                 Molality    Activity  Molality  Activity     Gamma

   H+                    6.297e-004  5.012e-004    -3.201    -3.300    -0.099
   OH-                   2.832e-011  1.992e-011   -10.548   -10.701    -0.153
   H2O                   5.551e+001  9.972e-001     1.744    -0.001     0.000
Al              1.065e-002
   AlSO4+                6.759e-003  5.034e-003    -2.170    -2.298    -0.128
   Al(SO4)2-             3.004e-003  2.238e-003    -2.522    -2.650    -0.128
   Al+3                  8.832e-004  1.133e-004    -3.054    -3.946    -0.892
   AlOH+2                7.272e-006  2.238e-006    -5.138    -5.650    -0.512
   AlHSO4+2              7.268e-007  2.237e-007    -6.139    -6.650    -0.512
   Al(OH)2+              4.686e-008  3.491e-008    -7.329    -7.457    -0.128
   Al(OH)3               9.751e-012  1.023e-011   -11.011   -10.990     0.021
   Al(OH)4-              5.152e-014  3.837e-014   -13.288   -13.416    -0.128
C(4)            1.029e-005
   CO2                   1.026e-005  1.077e-005    -4.989    -4.968     0.021
   HCO3-                 1.281e-008  9.527e-009    -7.892    -8.021    -0.129
   FeHCO3+               1.237e-008  9.213e-009    -7.908    -8.036    -0.128
   MgHCO3+               3.945e-010  2.939e-010    -9.404    -9.532    -0.128
   CaHCO3+               3.300e-010  2.454e-010    -9.481    -9.610    -0.129
   MnHCO3+               2.812e-010  2.095e-010    -9.551    -9.679    -0.128
   ZnHCO3+               6.917e-011  5.152e-011   -10.160   -10.288    -0.128
   NaHCO3                3.374e-011  3.541e-011   -10.472   -10.451     0.021
   FeCO3                 1.970e-013  2.068e-013   -12.705   -12.684     0.021
   MnCO3                 1.665e-014  1.747e-014   -13.779   -13.758     0.021
   ZnCO3                 7.281e-015  7.641e-015   -14.138   -14.117     0.021
   CO3-2                 2.917e-015  8.915e-016   -14.535   -15.050    -0.515
   CaCO3                 2.881e-015  3.023e-015   -14.540   -14.520     0.021
   MgCO3                 2.137e-015  2.242e-015   -14.670   -14.649     0.021
   NaCO3-                1.473e-016  1.097e-016   -15.832   -15.960    -0.128
   Zn(CO3)2-2            4.731e-025  1.456e-025   -24.325   -24.837    -0.512
Ca              1.177e-002
   Ca+2                  6.353e-003  2.019e-003    -2.197    -2.695    -0.498
   CaSO4                 5.395e-003  5.662e-003    -2.268    -2.247     0.021
   CaHSO4+               2.232e-005  1.662e-005    -4.651    -4.779    -0.128
   CaHCO3+               3.300e-010  2.454e-010    -9.481    -9.610    -0.129
   CaOH+                 8.949e-013  6.666e-013   -12.048   -12.176    -0.128
   CaCO3                 2.881e-015  3.023e-015   -14.540   -14.520     0.021
Cl              9.640e-003
   Cl-                   9.509e-003  6.737e-003    -2.022    -2.172    -0.150
   FeCl+                 1.207e-004  8.993e-005    -3.918    -4.046    -0.128
   MnCl+                 9.089e-006  6.770e-006    -5.041    -5.169    -0.128
   ZnCl+                 1.046e-006  7.789e-007    -5.981    -6.109    -0.128
   MnCl2                 1.897e-008  1.991e-008    -7.722    -7.701     0.021
   ZnCl2                 5.236e-009  5.495e-009    -8.281    -8.260     0.021
   ZnCl3-                5.576e-011  4.154e-011   -10.254   -10.382    -0.128
   MnCl3-                4.960e-011  3.694e-011   -10.305   -10.432    -0.128
   FeCl+2                6.103e-012  1.879e-012   -11.214   -11.726    -0.512
   ZnCl4-2               4.556e-013  1.403e-013   -12.341   -12.853    -0.512
   FeCl2+                7.591e-014  5.654e-014   -13.120   -13.248    -0.128
   FeCl3                 3.630e-017  3.809e-017   -16.440   -16.419     0.021
Cu(1)           3.197e-005
   Cu+                   3.197e-005  2.164e-005    -4.495    -4.665    -0.169
Cu(2)           2.403e-003
   Cu+2                  1.276e-003  4.124e-004    -2.894    -3.385    -0.490
   CuSO4                 1.128e-003  1.183e-003    -2.948    -2.927     0.021
   CuOH+                 1.147e-008  8.205e-009    -7.940    -8.086    -0.146
   Cu(OH)2               3.250e-011  3.411e-011   -10.488   -10.467     0.021
   Cu(OH)3-              5.490e-021  4.089e-021   -20.260   -20.388    -0.128
   Cu(OH)4-2             5.273e-030  1.623e-030   -29.278   -29.790    -0.512
Fe(2)           5.317e-002
   Fe+2                  2.991e-002  9.670e-003    -1.524    -2.015    -0.490
   FeSO4                 2.303e-002  2.417e-002    -1.638    -1.617     0.021
   FeCl+                 1.207e-004  8.993e-005    -3.918    -4.046    -0.128
   FeHSO4+               1.069e-004  7.963e-005    -3.971    -4.099    -0.128
   FeHCO3+               1.237e-008  9.213e-009    -7.908    -8.036    -0.128
   FeOH+                 8.168e-009  6.084e-009    -8.088    -8.216    -0.128
   FeCO3                 1.970e-013  2.068e-013   -12.705   -12.684     0.021
Fe(3)           3.073e-009
   FeSO4+                1.911e-009  1.423e-009    -8.719    -8.847    -0.128
   Fe(SO4)2-             5.876e-010  4.377e-010    -9.231    -9.359    -0.128
   FeOH+2                3.854e-010  1.186e-010    -9.414    -9.926    -0.512
   Fe(OH)2+              1.049e-010  7.816e-011    -9.979   -10.107    -0.128
   Fe+3                  7.201e-011  9.235e-012   -10.143   -11.035    -0.892
   FeHSO4+2              6.205e-012  1.910e-012   -11.207   -11.719    -0.512
   FeCl+2                6.103e-012  1.879e-012   -11.214   -11.726    -0.512
   FeCl2+                7.591e-014  5.654e-014   -13.120   -13.248    -0.128
   Fe(OH)3               1.909e-014  2.003e-014   -13.719   -13.698     0.021
   Fe2(OH)2+4            4.218e-017  3.788e-019   -16.375   -18.422    -2.047
   FeCl3                 3.630e-017  3.809e-017   -16.440   -16.419     0.021
   Fe(OH)4-              4.880e-020  3.635e-020   -19.312   -19.439    -0.128
   Fe3(OH)4+5            9.758e-024  6.185e-027   -23.011   -26.209    -3.198
H(0)            3.389e-018
   H2                    1.694e-018  1.778e-018   -17.771   -17.750     0.021
K               2.029e-004
   K+                    1.855e-004  1.314e-004    -3.732    -3.881    -0.150
   KSO4-                 1.743e-005  1.298e-005    -4.759    -4.887    -0.128
   KOH                   8.640e-016  9.068e-016   -15.063   -15.043     0.021
Mg              1.603e-002
   MgSO4                 8.277e-003  8.686e-003    -2.082    -2.061     0.021
   Mg+2                  7.756e-003  2.636e-003    -2.110    -2.579    -0.469
   MgHCO3+               3.945e-010  2.939e-010    -9.404    -9.532    -0.128
   MgOH+                 2.556e-011  1.904e-011   -10.592   -10.720    -0.128
   MgCO3                 2.137e-015  2.242e-015   -14.670   -14.649     0.021
Mn(2)           1.360e-003
   Mn+2                  7.630e-004  2.467e-004    -3.117    -3.608    -0.490
   MnSO4                 5.875e-004  6.166e-004    -3.231    -3.210     0.021
   MnCl+                 9.089e-006  6.770e-006    -5.041    -5.169    -0.128
   MnCl2                 1.897e-008  1.991e-008    -7.722    -7.701     0.021
   MnHCO3+               2.812e-010  2.095e-010    -9.551    -9.679    -0.128
   MnCl3-                4.960e-011  3.694e-011   -10.305   -10.432    -0.128
   MnOH+                 1.694e-011  1.262e-011   -10.771   -10.899    -0.128
   MnCO3                 1.665e-014  1.747e-014   -13.779   -13.758     0.021
Mn(3)           1.080e-024
   Mn+3                  1.080e-024  7.623e-026   -23.967   -25.118    -1.151
Na              9.538e-003
   Na+                   8.913e-003  6.609e-003    -2.050    -2.180    -0.130
   NaSO4-                6.250e-004  4.656e-004    -3.204    -3.332    -0.128
   NaHCO3                3.374e-011  3.541e-011   -10.472   -10.451     0.021
   NaOH                  8.278e-014  8.688e-014   -13.082   -13.061     0.021
   NaCO3-                1.473e-016  1.097e-016   -15.832   -15.960    -0.128
O(0)            0.000e+000
   O2                    0.000e+000  0.000e+000   -56.903   -56.882     0.021
S(6)            1.020e-001
   SO4-2                 4.884e-002  1.406e-002    -1.311    -1.852    -0.541
   FeSO4                 2.303e-002  2.417e-002    -1.638    -1.617     0.021
   MgSO4                 8.277e-003  8.686e-003    -2.082    -2.061     0.021
   AlSO4+                6.759e-003  5.034e-003    -2.170    -2.298    -0.128
   CaSO4                 5.395e-003  5.662e-003    -2.268    -2.247     0.021
   Al(SO4)2-             3.004e-003  2.238e-003    -2.522    -2.650    -0.128
   CuSO4                 1.128e-003  1.183e-003    -2.948    -2.927     0.021
   HSO4-                 9.195e-004  6.849e-004    -3.036    -3.164    -0.128
   NaSO4-                6.250e-004  4.656e-004    -3.204    -3.332    -0.128
   MnSO4                 5.875e-004  6.166e-004    -3.231    -3.210     0.021
   ZnSO4                 1.349e-004  1.415e-004    -3.870    -3.849     0.021
   FeHSO4+               1.069e-004  7.963e-005    -3.971    -4.099    -0.128
   Zn(SO4)2-2            5.253e-005  1.617e-005    -4.280    -4.791    -0.512
   CaHSO4+               2.232e-005  1.662e-005    -4.651    -4.779    -0.128
   KSO4-                 1.743e-005  1.298e-005    -4.759    -4.887    -0.128
   AlHSO4+2              7.268e-007  2.237e-007    -6.139    -6.650    -0.512
   FeSO4+                1.911e-009  1.423e-009    -8.719    -8.847    -0.128
   Fe(SO4)2-             5.876e-010  4.377e-010    -9.231    -9.359    -0.128
   FeHSO4+2              6.205e-012  1.910e-012   -11.207   -11.719    -0.512
Zn              3.348e-004
   Zn+2                  1.464e-004  4.296e-005    -3.834    -4.367    -0.532
   ZnSO4                 1.349e-004  1.415e-004    -3.870    -3.849     0.021
   Zn(SO4)2-2            5.253e-005  1.617e-005    -4.280    -4.791    -0.512
   ZnCl+                 1.046e-006  7.789e-007    -5.981    -6.109    -0.128
   ZnCl2                 5.236e-009  5.495e-009    -8.281    -8.260     0.021
   ZnOH+                 1.258e-010  9.371e-011    -9.900   -10.028    -0.128
   ZnHCO3+               6.917e-011  5.152e-011   -10.160   -10.288    -0.128
   ZnCl3-                5.576e-011  4.154e-011   -10.254   -10.382    -0.128
   ZnCl4-2               4.556e-013  1.403e-013   -12.341   -12.853    -0.512
   ZnCO3                 7.281e-015  7.641e-015   -14.138   -14.117     0.021
   Zn(OH)2               2.040e-015  2.141e-015   -14.690   -14.669     0.021
   Zn(OH)3-              1.808e-023  1.347e-023   -22.743   -22.871    -0.128
   Zn(CO3)2-2            4.731e-025  1.456e-025   -24.325   -24.837    -0.512
   Zn(OH)4-2             1.380e-032  4.247e-033   -31.860   -32.372    -0.512

------------------------------Saturation indices-------------------------------

	Phase               SI log IAP  log KT

	Al(OH)3(a)       -4.85    5.95   10.80  Al(OH)3
	AlOHSO4          -0.30   -2.50   -2.20  AlOHSO4
	Alunite           1.77    0.37   -1.40  KAl3(SO4)2(OH)6
	Anhydrite        -0.19   -4.55   -4.36  CaSO4
	Aragonite        -9.41  -17.74   -8.34  CaCO3
	Calcite          -9.26  -17.74   -8.48  CaCO3
	CO2(g)           -3.50   -4.97   -1.47  CO2
	Dolomite        -18.28  -35.37  -17.09  CaMg(CO3)2
	Fe(OH)3          -6.03   -1.14    4.89  Fe(OH)3
	Fe(OH)3(a)       -6.03   -1.14    4.89  Fe(OH)3
	Gibbsite         -2.16    5.95    8.11  Al(OH)3
	Goethite         -0.14   -1.14   -1.00  FeOOH
	Gypsum            0.03   -4.55   -4.58  CaSO4:2H2O
	H2(g)           -14.60  -17.75   -3.15  H2
	H2O(g)           -1.51   -0.00    1.51  H2O
	Halite           -5.93   -4.35    1.58  NaCl
	Hausmannite     -37.46   23.57   61.03  Mn3O4
	Hematite          1.74   -2.27   -4.01  Fe2O3
	Jarosite-K      -11.69  -20.90   -9.21  KFe3(SO4)2(OH)6
	Manganite       -15.05   10.29   25.34  MnOOH
	Melanterite      -1.67   -3.88   -2.21  FeSO4:7H2O
	MnO2            -23.79   17.59   41.38  MnO2
	O2(g)           -53.99  -56.88   -2.89  O2
	Pyrochroite     -12.21    2.99   15.20  Mn(OH)2
	Pyrolusite      -23.79   17.59   41.38  MnO2
	Rhodochrosite    -7.53  -18.66  -11.13  MnCO3
	Siderite         -6.17  -17.06  -10.89  FeCO3
	Smithsonite      -9.42  -19.42  -10.00  ZnCO3
	Zn(OH)2(e)       -9.27    2.23   11.50  Zn(OH)2

Initial solution 1.	

-----------------------------Solution composition------------------------------

	Elements           Molality       Moles

	Al               1.801e-006  1.801e-006
	Alkalinity       2.301e-003  2.301e-003
	Ca               1.222e-003  1.222e-003  Charge balance
	Cl               4.801e-004  4.801e-004
	Cu               1.500e-007  1.500e-007
	Fe               3.501e-007  3.501e-007
	K                3.001e-005  3.001e-005
	Mg               3.701e-004  3.701e-004
	Mn               1.000e-007  1.000e-007
	Na               9.603e-004  9.603e-004
	O(0)             2.201e-004  2.201e-004
	S(6)             7.002e-004  7.002e-004
	Zn               2.501e-007  2.501e-007

----------------------------Description of solution----------------------------

                                       pH  =   7.190    
                                       pe  =   4.000    
       Specific Conductance (uS/cm, 25 oC) = 411
                          Density (g/cm3)  =   0.99731
                        Activity of water  =   1.000
                           Ionic strength  =  6.013e-003
                       Mass of water (kg)  =  1.000e+000
                    Total carbon (mol/kg)  =  2.590e-003
                       Total CO2 (mol/kg)  =  2.590e-003
                      Temperature (deg C)  =  25.000
                  Electrical balance (eq)  =  1.384e-011
 Percent error, 100*(Cat-|An|)/(Cat+|An|)  =   0.00
                               Iterations  =   9
                                  Total H  = 1.110147e+002
                                  Total O  = 5.551671e+001

---------------------------------Redox couples---------------------------------

	Redox couple             pe  Eh (volts)

	O(-2)/O(0)          13.3406      0.7892

----------------------------Distribution of species----------------------------

                                                   Log       Log         Log 
   Species                 Molality    Activity  Molality  Activity     Gamma

   OH-                   1.685e-007  1.550e-007    -6.773    -6.810    -0.036
   H+                    6.952e-008  6.457e-008    -7.158    -7.190    -0.032
   H2O                   5.551e+001  9.999e-001     1.744    -0.000     0.000
Al              1.801e-006
   Al(OH)4-              1.720e-006  1.584e-006    -5.764    -5.800    -0.036
   Al(OH)3               5.421e-008  5.428e-008    -7.266    -7.265     0.001
   Al(OH)2+              2.583e-008  2.379e-008    -7.588    -7.624    -0.036
   AlOH+2                2.724e-010  1.960e-010    -9.565    -9.708    -0.143
   Al+3                  2.479e-012  1.274e-012   -11.606   -11.895    -0.289
   AlSO4+                1.906e-012  1.755e-012   -11.720   -11.756    -0.036
   Al(SO4)2-             2.626e-014  2.418e-014   -13.581   -13.616    -0.036
   AlHSO4+2              1.397e-020  1.005e-020   -19.855   -19.998    -0.143
C(4)            2.590e-003
   HCO3-                 2.253e-003  2.080e-003    -2.647    -2.682    -0.035
   CO2                   3.015e-004  3.019e-004    -3.521    -3.520     0.001
   CaHCO3+               2.348e-005  2.168e-005    -4.629    -4.664    -0.035
   MgHCO3+               6.511e-006  5.996e-006    -5.186    -5.222    -0.036
   CO3-2                 2.080e-006  1.511e-006    -5.682    -5.821    -0.139
   CaCO3                 2.070e-006  2.073e-006    -5.684    -5.683     0.001
   NaHCO3                1.030e-006  1.032e-006    -5.987    -5.986     0.001
   MgCO3                 3.547e-007  3.552e-007    -6.450    -6.450     0.001
   ZnCO3                 3.576e-008  3.581e-008    -7.447    -7.446     0.001
   ZnHCO3+               3.377e-008  3.111e-008    -7.471    -7.507    -0.036
   NaCO3-                2.694e-008  2.482e-008    -7.570    -7.605    -0.036
   FeHCO3+               2.441e-008  2.248e-008    -7.612    -7.648    -0.036
   MnHCO3+               1.136e-008  1.046e-008    -7.945    -7.980    -0.036
   MnCO3                 6.765e-009  6.774e-009    -8.170    -8.169     0.001
   FeCO3                 3.912e-009  3.917e-009    -8.408    -8.407     0.001
   Zn(CO3)2-2            1.607e-009  1.157e-009    -8.794    -8.937    -0.143
Ca              1.222e-003
   Ca+2                  1.125e-003  8.169e-004    -2.949    -3.088    -0.139
   CaSO4                 7.092e-005  7.101e-005    -4.149    -4.149     0.001
   CaHCO3+               2.348e-005  2.168e-005    -4.629    -4.664    -0.035
   CaCO3                 2.070e-006  2.073e-006    -5.684    -5.683     0.001
   CaOH+                 2.280e-009  2.100e-009    -8.642    -8.678    -0.036
   CaHSO4+               2.916e-011  2.686e-011   -10.535   -10.571    -0.036
Cl              4.801e-004
   Cl-                   4.801e-004  4.418e-004    -3.319    -3.355    -0.036
   ZnCl+                 1.534e-010  1.413e-010    -9.814    -9.850    -0.036
   MnCl+                 1.103e-010  1.016e-010    -9.957    -9.993    -0.036
   FeCl+                 7.157e-011  6.592e-011   -10.145   -10.181    -0.036
   ZnCl2                 6.526e-014  6.535e-014   -13.185   -13.185     0.001
   MnCl2                 1.956e-014  1.959e-014   -13.709   -13.708     0.001
   ZnCl3-                3.517e-017  3.239e-017   -16.454   -16.490    -0.036
   MnCl3-                2.588e-018  2.384e-018   -17.587   -17.623    -0.036
   FeCl+2                1.914e-018  1.377e-018   -17.718   -17.861    -0.143
   ZnCl4-2               9.966e-021  7.171e-021   -20.001   -20.144    -0.143
   FeCl2+                2.951e-021  2.718e-021   -20.530   -20.566    -0.036
   FeCl3                 1.199e-025  1.201e-025   -24.921   -24.921     0.001
Cu(1)           1.282e-009
   Cu+                   1.282e-009  1.177e-009    -8.892    -8.929    -0.037
Cu(2)           1.488e-007
   Cu(OH)2               1.122e-007  1.124e-007    -6.950    -6.949     0.001
   Cu+2                  3.075e-008  2.243e-008    -7.512    -7.649    -0.137
   CuOH+                 3.773e-009  3.474e-009    -8.423    -8.459    -0.036
   CuSO4                 1.993e-009  1.995e-009    -8.701    -8.700     0.001
   Cu(OH)3-              1.139e-013  1.049e-013   -12.944   -12.979    -0.036
   Cu(OH)4-2             4.504e-019  3.241e-019   -18.346   -18.489    -0.143
Fe(2)           1.855e-007
   Fe+2                  1.482e-007  1.081e-007    -6.829    -6.966    -0.137
   FeHCO3+               2.441e-008  2.248e-008    -7.612    -7.648    -0.036
   FeSO4                 8.364e-009  8.375e-009    -8.078    -8.077     0.001
   FeCO3                 3.912e-009  3.917e-009    -8.408    -8.407     0.001
   FeOH+                 5.748e-010  5.294e-010    -9.240    -9.276    -0.036
   FeCl+                 7.157e-011  6.592e-011   -10.145   -10.181    -0.036
   FeHSO4+               3.859e-015  3.554e-015   -14.413   -14.449    -0.036
Fe(3)           1.646e-007
   Fe(OH)3               1.055e-007  1.056e-007    -6.977    -6.976     0.001
   Fe(OH)2+              5.747e-008  5.293e-008    -7.241    -7.276    -0.036
   Fe(OH)4-              1.619e-009  1.492e-009    -8.791    -8.826    -0.036
   FeOH+2                1.435e-011  1.032e-011   -10.843   -10.986    -0.143
   FeSO4+                5.355e-016  4.932e-016   -15.271   -15.307    -0.036
   Fe+3                  2.009e-016  1.032e-016   -15.697   -15.986    -0.289
   Fe(SO4)2-             5.104e-018  4.701e-018   -17.292   -17.328    -0.036
   FeCl+2                1.914e-018  1.377e-018   -17.718   -17.861    -0.143
   Fe2(OH)2+4            1.070e-020  2.868e-021   -19.971   -20.542    -0.572
   FeCl2+                2.951e-021  2.718e-021   -20.530   -20.566    -0.036
   FeHSO4+2              1.185e-022  8.526e-023   -21.926   -22.069    -0.143
   Fe3(OH)4+5            2.481e-025  3.172e-026   -24.605   -25.499    -0.893
   FeCl3                 1.199e-025  1.201e-025   -24.921   -24.921     0.001
H(0)            5.894e-026
   H2                    2.947e-026  2.951e-026   -25.531   -25.530     0.001
K               3.001e-005
   K+                    2.992e-005  2.753e-005    -4.524    -4.560    -0.036
   KSO4-                 9.149e-008  8.427e-008    -7.039    -7.074    -0.036
   KOH                   1.476e-012  1.478e-012   -11.831   -11.830     0.001
Mg              3.701e-004
   Mg+2                  3.381e-004  2.464e-004    -3.471    -3.608    -0.137
   MgSO4                 2.513e-005  2.517e-005    -4.600    -4.599     0.001
   MgHCO3+               6.511e-006  5.996e-006    -5.186    -5.222    -0.036
   MgCO3                 3.547e-007  3.552e-007    -6.450    -6.450     0.001
   MgOH+                 1.504e-008  1.386e-008    -7.823    -7.858    -0.036
Mn(2)           1.000e-007
   Mn+2                  7.740e-008  5.645e-008    -7.111    -7.248    -0.137
   MnHCO3+               1.136e-008  1.046e-008    -7.945    -7.980    -0.036
   MnCO3                 6.765e-009  6.774e-009    -8.170    -8.169     0.001
   MnSO4                 4.368e-009  4.374e-009    -8.360    -8.359     0.001
   MnCl+                 1.103e-010  1.016e-010    -9.957    -9.993    -0.036
   MnOH+                 2.440e-011  2.247e-011   -10.613   -10.648    -0.036
   MnCl2                 1.956e-014  1.959e-014   -13.709   -13.708     0.001
   MnCl3-                2.588e-018  2.384e-018   -17.587   -17.623    -0.036
Mn(3)           3.658e-029
   Mn+3                  3.658e-029  1.745e-029   -28.437   -28.758    -0.322
Na              9.603e-004
   Na+                   9.571e-004  8.822e-004    -3.019    -3.054    -0.035
   NaSO4-                2.092e-006  1.926e-006    -5.680    -5.715    -0.036
   NaHCO3                1.030e-006  1.032e-006    -5.987    -5.986     0.001
   NaCO3-                2.694e-008  2.482e-008    -7.570    -7.605    -0.036
   NaOH                  9.014e-011  9.027e-011   -10.045   -10.044     0.001
O(0)            2.201e-004
   O2                    1.100e-004  1.102e-004    -3.958    -3.958     0.001
S(6)            7.002e-004
   SO4-2                 6.019e-004  4.357e-004    -3.220    -3.361    -0.140
   CaSO4                 7.092e-005  7.101e-005    -4.149    -4.149     0.001
   MgSO4                 2.513e-005  2.517e-005    -4.600    -4.599     0.001
   NaSO4-                2.092e-006  1.926e-006    -5.680    -5.715    -0.036
   KSO4-                 9.149e-008  8.427e-008    -7.039    -7.074    -0.036
   ZnSO4                 1.212e-008  1.213e-008    -7.917    -7.916     0.001
   FeSO4                 8.364e-009  8.375e-009    -8.078    -8.077     0.001
   MnSO4                 4.368e-009  4.374e-009    -8.360    -8.359     0.001
   HSO4-                 2.969e-009  2.735e-009    -8.527    -8.563    -0.036
   CuSO4                 1.993e-009  1.995e-009    -8.701    -8.700     0.001
   Zn(SO4)2-2            5.972e-011  4.297e-011   -10.224   -10.367    -0.143
   CaHSO4+               2.916e-011  2.686e-011   -10.535   -10.571    -0.036
   AlSO4+                1.906e-012  1.755e-012   -11.720   -11.756    -0.036
   Al(SO4)2-             2.626e-014  2.418e-014   -13.581   -13.616    -0.036
   FeHSO4+               3.859e-015  3.554e-015   -14.413   -14.449    -0.036
   FeSO4+                5.355e-016  4.932e-016   -15.271   -15.307    -0.036
   Fe(SO4)2-             5.104e-018  4.701e-018   -17.292   -17.328    -0.036
   AlHSO4+2              1.397e-020  1.005e-020   -19.855   -19.998    -0.143
   FeHSO4+2              1.185e-022  8.526e-023   -21.926   -22.069    -0.143
Zn              2.501e-007
   Zn+2                  1.641e-007  1.188e-007    -6.785    -6.925    -0.140
   ZnCO3                 3.576e-008  3.581e-008    -7.447    -7.446     0.001
   ZnHCO3+               3.377e-008  3.111e-008    -7.471    -7.507    -0.036
   ZnSO4                 1.212e-008  1.213e-008    -7.917    -7.916     0.001
   ZnOH+                 2.190e-009  2.017e-009    -8.659    -8.695    -0.036
   Zn(CO3)2-2            1.607e-009  1.157e-009    -8.794    -8.937    -0.143
   Zn(OH)2               3.582e-010  3.587e-010    -9.446    -9.445     0.001
   ZnCl+                 1.534e-010  1.413e-010    -9.814    -9.850    -0.036
   Zn(SO4)2-2            5.972e-011  4.297e-011   -10.224   -10.367    -0.143
   ZnCl2                 6.526e-014  6.535e-014   -13.185   -13.185     0.001
   Zn(OH)3-              1.907e-014  1.757e-014   -13.720   -13.755    -0.036
   ZnCl3-                3.517e-017  3.239e-017   -16.454   -16.490    -0.036
   Zn(OH)4-2             5.992e-020  4.312e-020   -19.222   -19.365    -0.143
   ZnCl4-2               9.966e-021  7.171e-021   -20.001   -20.144    -0.143

------------------------------Saturation indices-------------------------------

	Phase               SI log IAP  log KT

	Al(OH)3(a)       -1.12    9.68   10.80  Al(OH)3
	AlOHSO4          -5.87   -8.07   -2.20  AlOHSO4
	Alunite          -2.43   -3.83   -1.40  KAl3(SO4)2(OH)6
	Anhydrite        -2.09   -6.45   -4.36  CaSO4
	Aragonite        -0.57   -8.91   -8.34  CaCO3
	Calcite          -0.43   -8.91   -8.48  CaCO3
	CO2(g)           -2.05   -3.52   -1.47  CO2
	Dolomite         -1.25  -18.34  -17.09  CaMg(CO3)2
	Fe(OH)3           0.69    5.58    4.89  Fe(OH)3
	Fe(OH)3(a)        0.69    5.58    4.89  Fe(OH)3
	Gibbsite          1.57    9.68    8.11  Al(OH)3
	Goethite          6.58    5.58   -1.00  FeOOH
	Gypsum           -1.87   -6.45   -4.58  CaSO4:2H2O
	H2(g)           -22.38  -25.53   -3.15  H2
	H2O(g)           -1.51   -0.00    1.51  H2O
	Halite           -7.99   -6.41    1.58  NaCl
	Hausmannite     -17.26   43.77   61.03  Mn3O4
	Hematite         15.18   11.17   -4.01  Fe2O3
	Jarosite-K       -6.89  -16.10   -9.21  KFe3(SO4)2(OH)6
	Manganite        -7.02   18.32   25.34  MnOOH
	Melanterite      -8.12  -10.33   -2.21  FeSO4:7H2O
	MnO2            -11.87   29.51   41.38  MnO2
	O2(g)            -1.07   -3.96   -2.89  O2
	Pyrochroite      -8.07    7.13   15.20  Mn(OH)2
	Pyrolusite      -11.87   29.51   41.38  MnO2
	Rhodochrosite    -1.94  -13.07  -11.13  MnCO3
	Siderite         -1.90  -12.79  -10.89  FeCO3
	Smithsonite      -2.75  -12.75  -10.00  ZnCO3
	Zn(OH)2(e)       -4.05    7.45   11.50  Zn(OH)2

------------------------------------
Beginning of advection calculations.
------------------------------------

Beginning of advection time step 1, cumulative pore volumes 0.200000.
WARNING: Numerical method failed with this set of convergence parameters.

WARNING: Trying smaller step size, pe step size 10, 5 ... 

WARNING: Numerical method failed with this set of convergence parameters.

WARNING: Trying reduced tolerance 1e-016 ...

WARNING: Numerical method failed with this set of convergence parameters.

WARNING: Trying smaller step size, pe step size 10, 5 ... 

WARNING: Numerical method failed with this set of convergence parameters.

WARNING: Trying reduced tolerance 1e-016 ...

WARNING: Numerical method failed with this set of convergence parameters.

WARNING: Trying smaller step size, pe step size 10, 5 ... 

WARNING: Numerical method failed with this set of convergence parameters.

WARNING: Trying reduced tolerance 1e-016 ...

WARNING: Numerical method failed with this set of convergence parameters.

WARNING: Trying smaller step size, pe step size 10, 5 ... 

WARNING: Numerical method failed with this set of convergence parameters.

WARNING: Trying reduced tolerance 1e-016 ...

Beginning of advection time step 2, cumulative pore volumes 0.400000.
Beginning of advection time step 3, cumulative pore volumes 0.600000.
Beginning of advection time step 4, cumulative pore volumes 0.800000.
Beginning of advection time step 5, cumulative pore volumes 1.000000.

Cell 1.

Using solution 1.	
Using surface 1.	Surface assemblage after simulation 1.
Using pure phase assemblage 1.	Pure-phase assemblage after simulation 1.

-------------------------------Phase assemblage--------------------------------

                                                      Moles in assemblage
Phase                  SI log IAP  log KT      Initial       Final       Delta

Al(OH)3(a)          -0.00   10.80   10.80   4.258e-002  5.317e-002  1.060e-002
AlOHSO4             -0.32   -2.52   -2.20   0.000e+000           0  0.000e+000
Calcite             -3.11  -11.59   -8.48   0.000e+000           0  0.000e+000
Fe(OH)3             -0.00    4.89    4.89   8.199e-001  8.199e-001 -2.890e-005
Gypsum               0.00   -4.58   -4.58   1.332e-001  1.341e-001  9.322e-004
MnO2               -15.68   25.70   41.38   0.000e+000           0  0.000e+000

------------------------------Surface composition------------------------------

Surf          
	-7.690e-018  Surface + diffuse layer charge, eq
	 1.029e-001  Surface charge, eq
	 2.547e-001  sigma, C/m**2
	 7.626e-002  psi, V
	-2.968e+000  -F*psi/RT
	 5.139e-002  exp(-F*psi/RT)
	 6.000e+002  specific area, m**2/g
	 3.900e+004  m**2 for  6.500e+001 g

	Water in diffuse layer: 3.900e-002 kg, 100.0% of total DDL-water.

	Total moles in diffuse layer (excluding water)

	Element       	     Moles
	Al            	 1.9372e-006
	C             	 2.0501e-005
	Ca            	 1.3437e-004
	Cl            	 1.5186e-003
	Cu            	 1.9737e-007
	Fe            	 5.9450e-004
	H             	 1.3578e-005
	K             	 3.8408e-006
	Mg            	 2.4398e-004
	Mn            	 1.2797e-004
	Na            	 1.4994e-004
	O             	 2.0789e-001
	S             	 5.1958e-002
	Zn            	 8.0924e-005

Surf          
	 1.500e-001  moles
	                                   Mole                     Log
	Species               Moles    Fraction    Molality    Molality

	SurfOH2+         8.386e-002       0.559  8.391e-002      -1.076
	SurfOH           4.592e-002       0.306  4.595e-002      -1.338
	SurfOCu+         1.212e-002       0.081  1.213e-002      -1.916
	SurfOMn+         6.729e-003       0.045  6.733e-003      -2.172
	SurfOZn+         7.881e-004       0.005  7.886e-004      -3.103
	SurfO-           5.761e-004       0.004  5.765e-004      -3.239

-----------------------------Solution composition------------------------------

	Elements           Molality       Moles

	Al               5.731e-005  5.727e-005
	C                3.733e-004  3.730e-004
	Ca               1.084e-002  1.083e-002
	Cl               9.609e-003  9.603e-003
	Cu               1.734e-005  1.733e-005
	Fe               5.319e-002  5.316e-002
	K                2.028e-004  2.027e-004
	Mg               1.603e-002  1.602e-002
	Mn               1.147e-002  1.147e-002
	Na               9.535e-003  9.529e-003
	S                9.207e-002  9.202e-002
	Zn               4.684e-004  4.681e-004

----------------------------Description of solution----------------------------

                                       pH  =   5.739      Charge balance
                                       pe  =   2.713      Adjusted to redox equilibrium
       Specific Conductance (uS/cm, 25 oC) = 9038
                          Density (g/cm3)  =   1.00951
                        Activity of water  =   0.997
                           Ionic strength  =  2.085e-001
                       Mass of water (kg)  =  9.994e-001
                 Total alkalinity (eq/kg)  =  1.951e-004
                       Total CO2 (mol/kg)  =  3.733e-004
                      Temperature (deg C)  =  25.000
                  Electrical balance (eq)  = -5.741e-011
 Percent error, 100*(Cat-|An|)/(Cat+|An|)  =  -0.00
                               Iterations  =   1
                                  Total H  = 1.109457e+002
                                  Total O  = 5.584175e+001

----------------------------Distribution of species----------------------------

                                                   Log       Log         Log 
   Species                 Molality    Activity  Molality  Activity     Gamma

   H+                    2.289e-006  1.822e-006    -5.640    -5.739    -0.099
   OH-                   7.784e-009  5.478e-009    -8.109    -8.261    -0.153
   H2O                   5.551e+001  9.973e-001     1.744    -0.001     0.000
Al              5.731e-005
   AlSO4+                2.329e-005  1.735e-005    -4.633    -4.761    -0.128
   Al(OH)2+              1.205e-005  8.976e-006    -4.919    -5.047    -0.128
   Al(SO4)2-             1.049e-005  7.819e-006    -4.979    -5.107    -0.128
   AlOH+2                6.791e-006  2.093e-006    -5.168    -5.679    -0.511
   Al+3                  2.995e-006  3.850e-007    -5.524    -6.415    -0.891
   Al(OH)4-              1.002e-006  7.465e-007    -5.999    -6.127    -0.128
   Al(OH)3               6.898e-007  7.238e-007    -6.161    -6.140     0.021
   AlHSO4+2              9.097e-012  2.804e-012   -11.041   -11.552    -0.511
C(-4)           0.000e+000
   CH4                   0.000e+000  0.000e+000   -46.899   -46.878     0.021
C(4)            3.733e-004
   CO2                   2.119e-004  2.224e-004    -3.674    -3.653     0.021
   HCO3-                 7.276e-005  5.412e-005    -4.138    -4.267    -0.129
   FeHCO3+               6.994e-005  5.211e-005    -4.155    -4.283    -0.128
   MnHCO3+               1.339e-005  9.977e-006    -4.873    -5.001    -0.128
   MgHCO3+               2.225e-006  1.658e-006    -5.653    -5.780    -0.128
   CaHCO3+               1.719e-006  1.279e-006    -5.765    -5.893    -0.129
   ZnHCO3+               5.438e-007  4.052e-007    -6.265    -6.392    -0.128
   FeCO3                 3.066e-007  3.217e-007    -6.513    -6.493     0.021
   MnCO3                 2.181e-007  2.288e-007    -6.661    -6.640     0.021
   NaHCO3                1.915e-007  2.010e-007    -6.718    -6.697     0.021
   ZnCO3                 1.575e-008  1.653e-008    -7.803    -7.782     0.021
   CO3-2                 4.549e-009  1.393e-009    -8.342    -8.856    -0.514
   CaCO3                 4.130e-009  4.333e-009    -8.384    -8.363     0.021
   MgCO3                 3.316e-009  3.479e-009    -8.479    -8.459     0.021
   NaCO3-                2.298e-010  1.712e-010    -9.639    -9.766    -0.128
   Zn(CO3)2-2            1.597e-012  4.921e-013   -11.797   -12.308    -0.511
Ca              1.084e-002
   Ca+2                  5.820e-003  1.852e-003    -2.235    -2.732    -0.497
   CaSO4                 5.019e-003  5.266e-003    -2.299    -2.279     0.021
   CaHCO3+               1.719e-006  1.279e-006    -5.765    -5.893    -0.129
   CaHSO4+               7.545e-008  5.622e-008    -7.122    -7.250    -0.128
   CaCO3                 4.130e-009  4.333e-009    -8.384    -8.363     0.021
   CaOH+                 2.257e-010  1.682e-010    -9.646    -9.774    -0.128
Cl              9.609e-003
   Cl-                   9.412e-003  6.673e-003    -2.026    -2.176    -0.149
   FeCl+                 1.190e-004  8.869e-005    -3.924    -4.052    -0.128
   MnCl+                 7.547e-005  5.623e-005    -4.122    -4.250    -0.128
   ZnCl+                 1.433e-006  1.068e-006    -5.844    -5.971    -0.128
   MnCl2                 1.561e-007  1.638e-007    -6.807    -6.786     0.021
   ZnCl2                 7.113e-009  7.463e-009    -8.148    -8.127     0.021
   MnCl3-                4.040e-010  3.010e-010    -9.394    -9.521    -0.128
   ZnCl3-                7.499e-011  5.587e-011   -10.125   -10.253    -0.128
   ZnCl4-2               6.063e-013  1.869e-013   -12.217   -12.728    -0.511
   FeCl+2                3.104e-013  9.567e-014   -12.508   -13.019    -0.511
   FeCl2+                3.827e-015  2.851e-015   -14.417   -14.545    -0.128
   FeCl3                 1.813e-018  1.903e-018   -17.741   -17.721     0.021
Cu(1)           3.529e-006
   Cu+                   3.529e-006  2.390e-006    -5.452    -5.622    -0.169
Cu(2)           1.382e-005
   Cu+2                  7.262e-006  2.351e-006    -5.139    -5.629    -0.490
   CuSO4                 6.521e-006  6.842e-006    -5.186    -5.165     0.021
   CuOH+                 1.798e-008  1.287e-008    -7.745    -7.890    -0.145
   Cu(OH)2               1.402e-008  1.471e-008    -7.853    -7.832     0.021
   Cu(OH)3-              6.511e-016  4.852e-016   -15.186   -15.314    -0.128
   Cu(OH)4-2             1.719e-022  5.297e-023   -21.765   -22.276    -0.511
Fe(2)           5.319e-002
   Fe+2                  2.974e-002  9.629e-003    -1.527    -2.016    -0.490
   FeSO4                 2.326e-002  2.440e-002    -1.633    -1.613     0.021
   FeCl+                 1.190e-004  8.869e-005    -3.924    -4.052    -0.128
   FeHCO3+               6.994e-005  5.211e-005    -4.155    -4.283    -0.128
   FeOH+                 2.236e-006  1.666e-006    -5.650    -5.778    -0.128
   FeHSO4+               3.923e-007  2.923e-007    -6.406    -6.534    -0.128
   FeCO3                 3.066e-007  3.217e-007    -6.513    -6.493     0.021
   Fe(HS)2               0.000e+000  0.000e+000   -76.185   -76.164     0.021
   Fe(HS)3-              0.000e+000  0.000e+000  -115.548  -115.675    -0.128
Fe(3)           4.340e-007
   Fe(OH)2+              4.080e-007  3.040e-007    -6.389    -6.517    -0.128
   Fe(OH)3               2.042e-008  2.143e-008    -7.690    -7.669     0.021
   FeOH+2                5.443e-009  1.677e-009    -8.264    -8.775    -0.511
   FeSO4+                9.957e-011  7.418e-011   -10.002   -10.130    -0.128
   Fe(SO4)2-             3.104e-011  2.313e-011   -10.508   -10.636    -0.128
   Fe(OH)4-              1.435e-011  1.070e-011   -10.843   -10.971    -0.128
   Fe+3                  3.693e-012  4.747e-013   -11.433   -12.324    -0.891
   FeCl+2                3.104e-013  9.567e-014   -12.508   -13.019    -0.511
   Fe2(OH)2+4            8.395e-015  7.573e-017   -14.076   -16.121    -2.045
   FeCl2+                3.827e-015  2.851e-015   -14.417   -14.545    -0.128
   FeHSO4+2              1.175e-015  3.620e-016   -14.930   -15.441    -0.511
   Fe3(OH)4+5            7.534e-018  4.809e-021   -17.123   -20.318    -3.195
   FeCl3                 1.813e-018  1.903e-018   -17.741   -17.721     0.021
H(0)            1.682e-020
   H2                    8.408e-021  8.821e-021   -20.075   -20.054     0.021
K               2.028e-004
   K+                    1.852e-004  1.313e-004    -3.732    -3.882    -0.149
   KSO4-                 1.764e-005  1.315e-005    -4.753    -4.881    -0.128
   KOH                   2.374e-013  2.491e-013   -12.624   -12.604     0.021
Mg              1.603e-002
   MgSO4                 8.336e-003  8.746e-003    -2.079    -2.058     0.021
   Mg+2                  7.693e-003  2.618e-003    -2.114    -2.582    -0.468
   MgHCO3+               2.225e-006  1.658e-006    -5.653    -5.780    -0.128
   MgOH+                 6.981e-009  5.202e-009    -8.156    -8.284    -0.128
   MgCO3                 3.316e-009  3.479e-009    -8.479    -8.459     0.021
Mn(2)           1.147e-002
   Mn+2                  6.388e-003  2.068e-003    -2.195    -2.684    -0.490
   MnSO4                 4.996e-003  5.242e-003    -2.301    -2.280     0.021
   MnCl+                 7.547e-005  5.623e-005    -4.122    -4.250    -0.128
   MnHCO3+               1.339e-005  9.977e-006    -4.873    -5.001    -0.128
   MnCO3                 2.181e-007  2.288e-007    -6.661    -6.640     0.021
   MnCl2                 1.561e-007  1.638e-007    -6.807    -6.786     0.021
   MnOH+                 3.905e-008  2.910e-008    -7.408    -7.536    -0.128
   MnCl3-                4.040e-010  3.010e-010    -9.394    -9.521    -0.128
Mn(3)           4.663e-025
   Mn+3                  4.663e-025  3.300e-026   -24.331   -25.481    -1.150
Na              9.535e-003
   Na+                   8.902e-003  6.603e-003    -2.051    -2.180    -0.130
   NaSO4-                6.330e-004  4.716e-004    -3.199    -3.326    -0.128
   NaHCO3                1.915e-007  2.010e-007    -6.718    -6.697     0.021
   NaCO3-                2.298e-010  1.712e-010    -9.639    -9.766    -0.128
   NaOH                  2.275e-011  2.387e-011   -10.643   -10.622     0.021
O(0)            0.000e+000
   O2                    0.000e+000  0.000e+000   -52.294   -52.273     0.021
S(-2)           0.000e+000
   H2S                   0.000e+000  0.000e+000   -40.367   -40.346     0.021
   HS-                   0.000e+000  0.000e+000   -41.396   -41.549    -0.153
   S-2                   0.000e+000  0.000e+000   -48.196   -48.727    -0.532
   Fe(HS)2               0.000e+000  0.000e+000   -76.185   -76.164     0.021
   Fe(HS)3-              0.000e+000  0.000e+000  -115.548  -115.675    -0.128
S(6)            9.207e-002
   SO4-2                 4.942e-002  1.425e-002    -1.306    -1.846    -0.540
   FeSO4                 2.326e-002  2.440e-002    -1.633    -1.613     0.021
   MgSO4                 8.336e-003  8.746e-003    -2.079    -2.058     0.021
   CaSO4                 5.019e-003  5.266e-003    -2.299    -2.279     0.021
   MnSO4                 4.996e-003  5.242e-003    -2.301    -2.280     0.021
   NaSO4-                6.330e-004  4.716e-004    -3.199    -3.326    -0.128
   ZnSO4                 1.894e-004  1.987e-004    -3.723    -3.702     0.021
   Zn(SO4)2-2            7.468e-005  2.301e-005    -4.127    -4.638    -0.511
   AlSO4+                2.329e-005  1.735e-005    -4.633    -4.761    -0.128
   KSO4-                 1.764e-005  1.315e-005    -4.753    -4.881    -0.128
   Al(SO4)2-             1.049e-005  7.819e-006    -4.979    -5.107    -0.128
   CuSO4                 6.521e-006  6.842e-006    -5.186    -5.165     0.021
   HSO4-                 3.389e-006  2.525e-006    -5.470    -5.598    -0.128
   FeHSO4+               3.923e-007  2.923e-007    -6.406    -6.534    -0.128
   CaHSO4+               7.545e-008  5.622e-008    -7.122    -7.250    -0.128
   FeSO4+                9.957e-011  7.418e-011   -10.002   -10.130    -0.128
   Fe(SO4)2-             3.104e-011  2.313e-011   -10.508   -10.636    -0.128
   AlHSO4+2              9.097e-012  2.804e-012   -11.041   -11.552    -0.511
   FeHSO4+2              1.175e-015  3.620e-016   -14.930   -15.441    -0.511
Zn              4.684e-004
   Zn+2                  2.023e-004  5.947e-005    -3.694    -4.226    -0.532
   ZnSO4                 1.894e-004  1.987e-004    -3.723    -3.702     0.021
   Zn(SO4)2-2            7.468e-005  2.301e-005    -4.127    -4.638    -0.511
   ZnCl+                 1.433e-006  1.068e-006    -5.844    -5.971    -0.128
   ZnHCO3+               5.438e-007  4.052e-007    -6.265    -6.392    -0.128
   ZnOH+                 4.789e-008  3.568e-008    -7.320    -7.448    -0.128
   ZnCO3                 1.575e-008  1.653e-008    -7.803    -7.782     0.021
   ZnCl2                 7.113e-009  7.463e-009    -8.148    -8.127     0.021
   Zn(OH)2               2.137e-010  2.242e-010    -9.670    -9.649     0.021
   ZnCl3-                7.499e-011  5.587e-011   -10.125   -10.253    -0.128
   Zn(CO3)2-2            1.597e-012  4.921e-013   -11.797   -12.308    -0.511
   ZnCl4-2               6.063e-013  1.869e-013   -12.217   -12.728    -0.511
   Zn(OH)3-              5.208e-016  3.880e-016   -15.283   -15.411    -0.128
   Zn(OH)4-2             1.092e-022  3.365e-023   -21.962   -22.473    -0.511

------------------------------Saturation indices-------------------------------

	Phase               SI log IAP  log KT

	Al(OH)3(a)       -0.00   10.80   10.80  Al(OH)3
	AlOHSO4          -0.32   -2.52   -2.20  AlOHSO4
	Alunite           9.01    7.61   -1.40  KAl3(SO4)2(OH)6
	Anhydrite        -0.22   -4.58   -4.36  CaSO4
	Aragonite        -3.25  -11.59   -8.34  CaCO3
	Calcite          -3.11  -11.59   -8.48  CaCO3
	CH4(g)          -44.02  -46.88   -2.86  CH4
	CO2(g)           -2.19   -3.65   -1.47  CO2
	Dolomite         -5.94  -23.03  -17.09  CaMg(CO3)2
	Fe(OH)3          -0.00    4.89    4.89  Fe(OH)3
	Fe(OH)3(a)       -0.00    4.89    4.89  Fe(OH)3
	FeS(ppt)        -33.91  -37.83   -3.92  FeS
	Gibbsite          2.69   10.80    8.11  Al(OH)3
	Goethite          5.89    4.89   -1.00  FeOOH
	Gypsum            0.00   -4.58   -4.58  CaSO4:2H2O
	H2(g)           -16.90  -20.05   -3.15  H2
	H2O(g)           -1.51   -0.00    1.51  H2O
	H2S(g)          -39.35  -40.35   -1.00  H2S
	Halite           -5.94   -4.36    1.58  NaCl
	Hausmannite     -17.75   43.28   61.03  Mn3O4
	Hematite         13.79    9.79   -4.01  Fe2O3
	Jarosite-K       -0.91  -10.12   -9.21  KFe3(SO4)2(OH)6
	Mackinawite     -33.18  -37.83   -4.65  FeS
	Manganite        -8.10   17.24   25.34  MnOOH
	Melanterite      -1.66   -3.87   -2.21  FeSO4:7H2O
	MnO2            -15.68   25.70   41.38  MnO2
	O2(g)           -49.38  -52.27   -2.89  O2
	Pyrite          -49.73  -68.21  -18.48  FeS2
	Pyrochroite      -6.41    8.79   15.20  Mn(OH)2
	Pyrolusite      -15.68   25.70   41.38  MnO2
	Rhodochrosite    -0.41  -11.54  -11.13  MnCO3
	Siderite          0.02  -10.87  -10.89  FeCO3
	Smithsonite      -3.08  -13.08  -10.00  ZnCO3
	Sphalerite      -28.42  -40.03  -11.62  ZnS
	Sulfur          -28.32  -23.44    4.88  S
	Zn(OH)2(e)       -4.25    7.25   11.50  Zn(OH)2


Cell 2.

Using solution 2.	Solution after simulation 1.
Using surface 2.	Surface assemblage after simulation 1.
Using pure phase assemblage 2.	Pure-phase assemblage after simulation 1.

-------------------------------Phase assemblage--------------------------------

                                                      Moles in assemblage
Phase                  SI log IAP  log KT      Initial       Final       Delta

Al(OH)3(a)           0.00   10.80   10.80   0.000e+000  4.031e-006  4.031e-006
AlOHSO4             -1.63   -3.83   -2.20   0.000e+000           0  0.000e+000
Calcite              0.00   -8.48   -8.48   1.183e-001  8.383e-002 -3.442e-002
Fe(OH)3              0.00    4.89    4.89   7.992e-001  8.200e-001  2.078e-002
Gypsum              -0.00   -4.58   -4.58   2.876e-002  6.089e-002  3.213e-002
MnO2               -16.38   25.00   41.38   1.040e-002           0 -1.040e-002

------------------------------Surface composition------------------------------

Surf          
	-1.101e-016  Surface + diffuse layer charge, eq
	 7.293e-002  Surface charge, eq
	 1.804e-001  sigma, C/m**2
	 7.259e-002  psi, V
	-2.826e+000  -F*psi/RT
	 5.928e-002  exp(-F*psi/RT)
	 6.000e+002  specific area, m**2/g
	 3.900e+004  m**2 for  6.500e+001 g

	Water in diffuse layer: 3.900e-002 kg, 100.0% of total DDL-water.

	Total moles in diffuse layer (excluding water)

	Element       	     Moles
	Al            	 6.9140e-007
	C             	 3.5830e-003
	Ca            	 5.9880e-005
	Cl            	 1.7585e-003
	Cu            	 3.4445e-011
	Fe            	 8.7204e-005
	H             	 3.0347e-003
	K             	 2.3029e-006
	Mg            	 1.1860e-004
	Mn            	 3.2460e-005
	Na            	 8.3198e-005
	O             	 1.4781e-001
	S             	 3.4397e-002
	Zn            	 2.0199e-006

Surf          
	 1.500e-001  moles
	                                   Mole                     Log
	Species               Moles    Fraction    Molality    Molality

	SurfOH           7.120e-002       0.475  7.137e-002      -1.146
	SurfOH2+         3.959e-002       0.264  3.968e-002      -1.401
	SurfOMn+         3.598e-002       0.240  3.607e-002      -1.443
	SurfO-           2.934e-003       0.020  2.941e-003      -2.532
	SurfOZn+         2.618e-004       0.002  2.625e-004      -3.581
	SurfOCu+         3.523e-005       0.000  3.531e-005      -4.452

-----------------------------Solution composition------------------------------

	Elements           Molality       Moles

	Al               8.453e-006  8.432e-006
	C                4.378e-002  4.367e-002
	Ca               1.320e-002  1.317e-002
	Cl               1.014e-002  1.011e-002
	Cu               4.667e-008  4.656e-008
	Fe               3.223e-002  3.215e-002
	K                2.013e-004  2.008e-004
	Mg               1.587e-002  1.583e-002
	Mn               1.024e-002  1.022e-002
	Na               9.466e-003  9.443e-003
	S                5.613e-002  5.600e-002
	Zn               2.471e-005  2.465e-005

----------------------------Description of solution----------------------------

                                       pH  =   6.318      Charge balance
                                       pe  =   1.257      Adjusted to redox equilibrium
       Specific Conductance (uS/cm, 25 oC) = 7339
                          Density (g/cm3)  =   1.00670
                        Activity of water  =   0.997
                           Ionic strength  =  1.585e-001
                       Mass of water (kg)  =  9.976e-001
                 Total alkalinity (eq/kg)  =  3.042e-002
                       Total CO2 (mol/kg)  =  4.378e-002
                      Temperature (deg C)  =  25.000
                  Electrical balance (eq)  = -5.741e-011
 Percent error, 100*(Cat-|An|)/(Cat+|An|)  =  -0.00
                               Iterations  =   1
                                  Total H  = 1.107734e+002
                                  Total O  = 5.571321e+001

----------------------------Distribution of species----------------------------

                                                   Log       Log         Log 
   Species                 Molality    Activity  Molality  Activity     Gamma

   H+                    5.962e-007  4.811e-007    -6.225    -6.318    -0.093
   OH-                   2.859e-008  2.075e-008    -7.544    -7.683    -0.139
   H2O                   5.551e+001  9.974e-001     1.744    -0.001     0.000
Al              8.453e-006
   Al(OH)4-              3.735e-006  2.828e-006    -5.428    -5.548    -0.121
   Al(OH)2+              3.129e-006  2.369e-006    -5.505    -5.625    -0.121
   Al(OH)3               6.978e-007  7.238e-007    -6.156    -6.140     0.016
   AlOH+2                4.437e-007  1.458e-007    -6.353    -6.836    -0.483
   AlSO4+                3.010e-007  2.279e-007    -6.521    -6.642    -0.121
   Al(SO4)2-             9.687e-008  7.335e-008    -7.014    -7.135    -0.121
   Al+3                  4.882e-008  7.080e-009    -7.311    -8.150    -0.839
   AlHSO4+2              2.958e-014  9.721e-015   -13.529   -14.012    -0.483
C(-4)           8.558e-039
   CH4                   8.558e-039  8.876e-039   -38.068   -38.052     0.016
C(4)            4.378e-002
   HCO3-                 1.723e-002  1.311e-002    -1.764    -1.882    -0.119
   CO2                   1.371e-002  1.422e-002    -1.863    -1.847     0.016
   FeHCO3+               8.761e-003  6.633e-003    -2.057    -2.178    -0.121
   MnHCO3+               2.519e-003  1.908e-003    -2.599    -2.720    -0.121
   MgHCO3+               6.112e-004  4.627e-004    -3.214    -3.335    -0.121
   CaHCO3+               5.700e-004  4.335e-004    -3.244    -3.363    -0.119
   MnCO3                 1.598e-004  1.657e-004    -3.796    -3.781     0.016
   FeCO3                 1.496e-004  1.551e-004    -3.825    -3.809     0.016
   NaHCO3                4.817e-005  4.996e-005    -4.317    -4.301     0.016
   ZnHCO3+               6.357e-006  4.813e-006    -5.197    -5.318    -0.121
   CaCO3                 5.365e-006  5.565e-006    -5.270    -5.255     0.016
   CO3-2                 3.819e-006  1.278e-006    -5.418    -5.894    -0.476
   MgCO3                 3.547e-006  3.679e-006    -5.450    -5.434     0.016
   ZnCO3                 7.170e-007  7.436e-007    -6.145    -6.129     0.016
   NaCO3-                2.130e-007  1.613e-007    -6.672    -6.792    -0.121
   Zn(CO3)2-2            6.181e-008  2.032e-008    -7.209    -7.692    -0.483
Ca              1.320e-002
   Ca+2                  7.552e-003  2.592e-003    -2.122    -2.586    -0.464
   CaSO4                 5.076e-003  5.265e-003    -2.294    -2.279     0.016
   CaHCO3+               5.700e-004  4.335e-004    -3.244    -3.363    -0.119
   CaCO3                 5.365e-006  5.565e-006    -5.270    -5.255     0.016
   CaHSO4+               1.960e-008  1.484e-008    -7.708    -7.829    -0.121
   CaOH+                 1.178e-009  8.920e-010    -8.929    -9.050    -0.121
Cl              1.014e-002
   Cl-                   1.001e-002  7.304e-003    -2.000    -2.136    -0.137
   FeCl+                 6.739e-005  5.102e-005    -4.171    -4.292    -0.121
   MnCl+                 6.417e-005  4.858e-005    -4.193    -4.313    -0.121
   MnCl2                 1.494e-007  1.549e-007    -6.826    -6.810     0.016
   ZnCl+                 7.573e-008  5.734e-008    -7.121    -7.242    -0.121
   ZnCl2                 4.228e-010  4.386e-010    -9.374    -9.358     0.016
   MnCl3-                4.116e-010  3.116e-010    -9.386    -9.506    -0.121
   ZnCl3-                4.747e-012  3.594e-012   -11.324   -11.444    -0.121
   ZnCl4-2               4.003e-014  1.316e-014   -13.398   -13.881    -0.483
   FeCl+2                5.860e-015  1.926e-015   -14.232   -14.715    -0.483
   FeCl2+                8.299e-017  6.283e-017   -16.081   -16.202    -0.121
   FeCl3                 4.425e-020  4.590e-020   -19.354   -19.338     0.016
Cu(1)           4.166e-008
   Cu+                   4.166e-008  2.930e-008    -7.380    -7.533    -0.153
Cu(2)           5.010e-009
   Cu+2                  2.873e-009  1.009e-009    -8.542    -8.996    -0.455
   CuSO4                 2.021e-009  2.096e-009    -8.694    -8.679     0.016
   Cu(OH)2               8.734e-011  9.058e-011   -10.059   -10.043     0.016
   CuOH+                 2.842e-011  2.091e-011   -10.546   -10.680    -0.133
   Cu(OH)3-              1.495e-017  1.132e-017   -16.825   -16.946    -0.121
   Cu(OH)4-2             1.424e-023  4.681e-024   -22.846   -23.330    -0.483
Fe(2)           3.223e-002
   Fe+2                  1.441e-002  5.061e-003    -1.841    -2.296    -0.455
   FeSO4                 8.831e-003  9.159e-003    -2.054    -2.038     0.016
   FeHCO3+               8.761e-003  6.633e-003    -2.057    -2.178    -0.121
   FeCO3                 1.496e-004  1.551e-004    -3.825    -3.809     0.016
   FeCl+                 6.739e-005  5.102e-005    -4.171    -4.292    -0.121
   FeOH+                 4.382e-006  3.318e-006    -5.358    -5.479    -0.121
   FeHSO4+               3.825e-008  2.896e-008    -7.417    -7.538    -0.121
   Fe(HS)2               0.000e+000  0.000e+000   -63.867   -63.851     0.016
   Fe(HS)3-              0.000e+000  0.000e+000   -96.946   -97.067    -0.121
Fe(3)           1.270e-007
   Fe(OH)2+              1.060e-007  8.023e-008    -6.975    -7.096    -0.121
   Fe(OH)3               2.066e-008  2.143e-008    -7.685    -7.669     0.016
   FeOH+2                3.556e-010  1.169e-010    -9.449    -9.932    -0.483
   Fe(OH)4-              5.351e-011  4.052e-011   -10.272   -10.392    -0.121
   FeSO4+                1.287e-012  9.744e-013   -11.890   -12.011    -0.121
   Fe(SO4)2-             2.865e-013  2.170e-013   -12.543   -12.664    -0.121
   Fe+3                  6.020e-014  8.731e-015   -13.220   -14.059    -0.839
   FeCl+2                5.860e-015  1.926e-015   -14.232   -14.715    -0.483
   FeCl2+                8.299e-017  6.283e-017   -16.081   -16.202    -0.121
   Fe2(OH)2+4            3.151e-017  3.676e-019   -16.502   -18.435    -1.933
   FeHSO4+2              3.819e-018  1.255e-018   -17.418   -17.901    -0.483
   FeCl3                 4.425e-020  4.590e-020   -19.354   -19.338     0.016
   Fe3(OH)4+5            6.459e-021  6.163e-024   -20.190   -23.210    -3.020
H(0)            9.681e-019
   H2                    4.840e-019  5.020e-019   -18.315   -18.299     0.016
K               2.013e-004
   K+                    1.883e-004  1.374e-004    -3.725    -3.862    -0.137
   KSO4-                 1.298e-005  9.829e-006    -4.887    -5.008    -0.121
   KOH                   9.526e-013  9.880e-013   -12.021   -12.005     0.016
Mg              1.587e-002
   Mg+2                  8.313e-003  3.017e-003    -2.080    -2.520    -0.440
   MgSO4                 6.941e-003  7.199e-003    -2.159    -2.143     0.016
   MgHCO3+               6.112e-004  4.627e-004    -3.214    -3.335    -0.121
   MgCO3                 3.547e-006  3.679e-006    -5.450    -5.434     0.016
   MgOH+                 3.000e-008  2.271e-008    -7.523    -7.644    -0.121
Mn(2)           1.024e-002
   Mn+2                  4.651e-003  1.633e-003    -2.332    -2.787    -0.455
   MnSO4                 2.849e-003  2.955e-003    -2.545    -2.529     0.016
   MnHCO3+               2.519e-003  1.908e-003    -2.599    -2.720    -0.121
   MnCO3                 1.598e-004  1.657e-004    -3.796    -3.781     0.016
   MnCl+                 6.417e-005  4.858e-005    -4.193    -4.313    -0.121
   MnCl2                 1.494e-007  1.549e-007    -6.826    -6.810     0.016
   MnOH+                 1.149e-007  8.701e-008    -6.940    -7.060    -0.121
   MnCl3-                4.116e-010  3.116e-010    -9.386    -9.506    -0.121
Mn(3)           1.115e-026
   Mn+3                  1.115e-026  9.116e-028   -25.953   -27.040    -1.087
Na              9.466e-003
   Na+                   8.961e-003  6.778e-003    -2.048    -2.169    -0.121
   NaSO4-                4.566e-004  3.457e-004    -3.340    -3.461    -0.121
   NaHCO3                4.817e-005  4.996e-005    -4.317    -4.301     0.016
   NaCO3-                2.130e-007  1.613e-007    -6.672    -6.792    -0.121
   NaOH                  8.951e-011  9.284e-011   -10.048   -10.032     0.016
O(0)            0.000e+000
   O2                    0.000e+000  0.000e+000   -55.800   -55.784     0.016
S(-2)           3.036e-035
   H2S                   2.267e-035  2.351e-035   -34.645   -34.629     0.016
   HS-                   7.699e-036  5.589e-036   -35.114   -35.253    -0.139
   S-2                   0.000e+000  0.000e+000   -41.362   -41.853    -0.491
   Fe(HS)2               0.000e+000  0.000e+000   -63.867   -63.851     0.016
   Fe(HS)3-              0.000e+000  0.000e+000   -96.946   -97.067    -0.121
S(6)            5.613e-002
   SO4-2                 3.196e-002  1.018e-002    -1.495    -1.992    -0.497
   FeSO4                 8.831e-003  9.159e-003    -2.054    -2.038     0.016
   MgSO4                 6.941e-003  7.199e-003    -2.159    -2.143     0.016
   CaSO4                 5.076e-003  5.265e-003    -2.294    -2.279     0.016
   MnSO4                 2.849e-003  2.955e-003    -2.545    -2.529     0.016
   NaSO4-                4.566e-004  3.457e-004    -3.340    -3.461    -0.121
   KSO4-                 1.298e-005  9.829e-006    -4.887    -5.008    -0.121
   ZnSO4                 6.710e-006  6.959e-006    -5.173    -5.157     0.016
   Zn(SO4)2-2            1.752e-006  5.757e-007    -5.757    -6.240    -0.483
   HSO4-                 6.287e-007  4.760e-007    -6.202    -6.322    -0.121
   AlSO4+                3.010e-007  2.279e-007    -6.521    -6.642    -0.121
   Al(SO4)2-             9.687e-008  7.335e-008    -7.014    -7.135    -0.121
   FeHSO4+               3.825e-008  2.896e-008    -7.417    -7.538    -0.121
   CaHSO4+               1.960e-008  1.484e-008    -7.708    -7.829    -0.121
   CuSO4                 2.021e-009  2.096e-009    -8.694    -8.679     0.016
   FeSO4+                1.287e-012  9.744e-013   -11.890   -12.011    -0.121
   Fe(SO4)2-             2.865e-013  2.170e-013   -12.543   -12.664    -0.121
   AlHSO4+2              2.958e-014  9.721e-015   -13.529   -14.012    -0.483
   FeHSO4+2              3.819e-018  1.255e-018   -17.418   -17.901    -0.483
Zn              2.471e-005
   Zn+2                  9.024e-006  2.917e-006    -5.045    -5.535    -0.491
   ZnSO4                 6.710e-006  6.959e-006    -5.173    -5.157     0.016
   ZnHCO3+               6.357e-006  4.813e-006    -5.197    -5.318    -0.121
   Zn(SO4)2-2            1.752e-006  5.757e-007    -5.757    -6.240    -0.483
   ZnCO3                 7.170e-007  7.436e-007    -6.145    -6.129     0.016
   ZnCl+                 7.573e-008  5.734e-008    -7.121    -7.242    -0.121
   Zn(CO3)2-2            6.181e-008  2.032e-008    -7.209    -7.692    -0.483
   ZnOH+                 8.757e-009  6.630e-009    -8.058    -8.178    -0.121
   ZnCl2                 4.228e-010  4.386e-010    -9.374    -9.358     0.016
   Zn(OH)2               1.522e-010  1.578e-010    -9.818    -9.802     0.016
   ZnCl3-                4.747e-012  3.594e-012   -11.324   -11.444    -0.121
   ZnCl4-2               4.003e-014  1.316e-014   -13.398   -13.881    -0.483
   Zn(OH)3-              1.367e-015  1.035e-015   -14.864   -14.985    -0.121
   Zn(OH)4-2             1.035e-021  3.400e-022   -20.985   -21.469    -0.483

------------------------------Saturation indices-------------------------------

	Phase               SI log IAP  log KT

	Al(OH)3(a)        0.00   10.80   10.80  Al(OH)3
	AlOHSO4          -1.63   -3.83   -2.20  AlOHSO4
	Alunite           7.00    5.60   -1.40  KAl3(SO4)2(OH)6
	Anhydrite        -0.22   -4.58   -4.36  CaSO4
	Aragonite        -0.14   -8.48   -8.34  CaCO3
	Calcite           0.00   -8.48   -8.48  CaCO3
	CH4(g)          -35.19  -38.05   -2.86  CH4
	CO2(g)           -0.38   -1.85   -1.47  CO2
	Dolomite          0.20  -16.89  -17.09  CaMg(CO3)2
	Fe(OH)3           0.00    4.89    4.89  Fe(OH)3
	Fe(OH)3(a)        0.00    4.89    4.89  Fe(OH)3
	FeS(ppt)        -27.32  -31.23   -3.92  FeS
	Gibbsite          2.69   10.80    8.11  Al(OH)3
	Goethite          5.89    4.89   -1.00  FeOOH
	Gypsum           -0.00   -4.58   -4.58  CaSO4:2H2O
	H2(g)           -15.15  -18.30   -3.15  H2
	H2O(g)           -1.51   -0.00    1.51  H2O
	H2S(g)          -33.63  -34.63   -1.00  H2S
	Halite           -5.89   -4.31    1.58  NaCl
	Hausmannite     -16.34   44.69   61.03  Mn3O4
	Hematite         13.79    9.79   -4.01  Fe2O3
	Jarosite-K       -2.91  -12.12   -9.21  KFe3(SO4)2(OH)6
	Mackinawite     -26.58  -31.23   -4.65  FeS
	Manganite        -7.92   17.42   25.34  MnOOH
	Melanterite      -2.09   -4.30   -2.21  FeSO4:7H2O
	MnO2            -16.38   25.00   41.38  MnO2
	O2(g)           -52.89  -55.78   -2.89  O2
	Pyrite          -39.17  -57.65  -18.48  FeS2
	Pyrochroite      -5.35    9.85   15.20  Mn(OH)2
	Pyrolusite      -16.38   25.00   41.38  MnO2
	Rhodochrosite     2.45   -8.68  -11.13  MnCO3
	Siderite          2.70   -8.19  -10.89  FeCO3
	Smithsonite      -1.43  -11.43  -10.00  ZnCO3
	Sphalerite      -22.85  -34.47  -11.62  ZnS
	Sulfur          -24.36  -19.48    4.88  S
	Zn(OH)2(e)       -4.40    7.10   11.50  Zn(OH)2


Cell 3.

Using solution 3.	Solution after simulation 1.
Using surface 3.	Surface assemblage after simulation 1.
Using pure phase assemblage 3.	Pure-phase assemblage after simulation 1.

-------------------------------Phase assemblage--------------------------------

                                                      Moles in assemblage
Phase                  SI log IAP  log KT      Initial       Final       Delta

Al(OH)3(a)          -0.00   10.80   10.80   3.029e-006  1.625e-006 -1.403e-006
AlOHSO4             -1.38   -3.58   -2.20   0.000e+000           0  0.000e+000
Calcite              0.00   -8.48   -8.48   1.532e-001  1.563e-001  3.132e-003
Fe(OH)3              0.00    4.89    4.89   7.300e-001  7.300e-001  1.570e-008
Gypsum              -0.17   -4.75   -4.58   0.000e+000           0  0.000e+000
MnO2                 0.00   41.38   41.38   4.501e-002  4.501e-002  8.793e-011

------------------------------Surface composition------------------------------

Surf          
	-1.094e-016  Surface + diffuse layer charge, eq
	 7.045e-002  Surface charge, eq
	 1.743e-001  sigma, C/m**2
	 8.138e-002  psi, V
	-3.168e+000  -F*psi/RT
	 4.211e-002  exp(-F*psi/RT)
	 6.000e+002  specific area, m**2/g
	 3.900e+004  m**2 for  6.500e+001 g

	Water in diffuse layer: 3.900e-002 kg, 100.0% of total DDL-water.

	Total moles in diffuse layer (excluding water)

	Element       	     Moles
	Al            	 4.2212e-007
	C             	 7.4155e-003
	Ca            	-1.9810e-004
	Cl            	 2.4858e-003
	Cu            	-5.7329e-013
	Fe            	-1.8099e-009
	H             	 5.9880e-003
	K             	-8.3651e-007
	Mg            	-1.9029e-004
	Mn            	-1.7635e-004
	Na            	-5.9366e-005
	O             	 1.4237e-001
	S             	 3.0384e-002
	Zn            	 2.6355e-007

Surf          
	 1.500e-001  moles
	                                   Mole                     Log
	Species               Moles    Fraction    Molality    Molality

	SurfOH           7.480e-002       0.499  7.511e-002      -1.124
	SurfOH2+         5.407e-002       0.360  5.429e-002      -1.265
	SurfOMn+         1.872e-002       0.125  1.879e-002      -1.726
	SurfO-           2.371e-003       0.016  2.381e-003      -2.623
	SurfOZn+         3.976e-005       0.000  3.992e-005      -4.399
	SurfOCu+         1.585e-007       0.000  1.592e-007      -6.798

-----------------------------Solution composition------------------------------

	Elements           Molality       Moles

	Al               1.088e-005  1.084e-005
	C                6.693e-002  6.666e-002
	Ca               1.296e-002  1.291e-002
	Cl               9.818e-003  9.777e-003
	Cu               4.013e-011  3.996e-011
	Fe               2.103e-007  2.094e-007
	K                1.982e-004  1.974e-004
	Mg               1.556e-002  1.549e-002
	Mn               1.183e-002  1.178e-002
	Na               9.323e-003  9.285e-003
	S                2.483e-002  2.473e-002
	Zn               7.910e-006  7.878e-006

----------------------------Description of solution----------------------------

                                       pH  =   6.055      Charge balance
                                       pe  =   9.921      Adjusted to redox equilibrium
       Specific Conductance (uS/cm, 25 oC) = 5283
                          Density (g/cm3)  =   1.00258
                        Activity of water  =   0.998
                           Ionic strength  =  1.002e-001
                       Mass of water (kg)  =  9.959e-001
                 Total alkalinity (eq/kg)  =  3.078e-002
                       Total CO2 (mol/kg)  =  6.693e-002
                      Temperature (deg C)  =  25.000
                  Electrical balance (eq)  = -5.741e-011
 Percent error, 100*(Cat-|An|)/(Cat+|An|)  =  -0.00
                               Iterations  =   1
                                  Total H  = 1.105846e+002
                                  Total O  = 5.553987e+001

----------------------------Distribution of species----------------------------

                                                   Log       Log         Log 
   Species                 Molality    Activity  Molality  Activity     Gamma

   H+                    1.066e-006  8.804e-007    -5.972    -6.055    -0.083
   OH-                   1.489e-008  1.135e-008    -7.827    -7.945    -0.118
   H2O                   5.551e+001  9.977e-001     1.744    -0.001     0.000
Al              1.088e-005
   Al(OH)2+              5.547e-006  4.334e-006    -5.256    -5.363    -0.107
   Al(OH)4-              1.979e-006  1.546e-006    -5.704    -5.811    -0.107
   AlOH+2                1.309e-006  4.880e-007    -5.883    -6.312    -0.429
   AlSO4+                9.396e-007  7.342e-007    -6.027    -6.134    -0.107
   Al(OH)3               7.073e-007  7.238e-007    -6.150    -6.140     0.010
   Al+3                  2.436e-007  4.335e-008    -6.613    -7.363    -0.750
   Al(SO4)2-             1.592e-007  1.244e-007    -6.798    -6.905    -0.107
   AlHSO4+2              1.538e-013  5.731e-014   -12.813   -13.242    -0.429
C(-4)           0.000e+000
   CH4                   0.000e+000  0.000e+000  -104.858  -104.848     0.010
C(4)            6.693e-002
   CO2                   3.634e-002  3.719e-002    -1.440    -1.430     0.010
   HCO3-                 2.378e-002  1.875e-002    -1.624    -1.727    -0.103
   MnHCO3+               4.453e-003  3.480e-003    -2.351    -2.458    -0.107
   MgHCO3+               1.101e-003  8.606e-004    -2.958    -3.065    -0.107
   CaHCO3+               1.006e-003  7.934e-004    -2.997    -3.101    -0.103
   MnCO3                 1.614e-004  1.652e-004    -3.792    -3.782     0.010
   NaHCO3                7.264e-005  7.434e-005    -4.139    -4.129     0.010
   CaCO3                 5.438e-006  5.565e-006    -5.265    -5.255     0.010
   MgCO3                 3.654e-006  3.739e-006    -5.437    -5.427     0.010
   ZnHCO3+               3.280e-006  2.563e-006    -5.484    -5.591    -0.107
   CO3-2                 2.585e-006  9.987e-007    -5.588    -6.001    -0.413
   ZnCO3                 2.114e-007  2.164e-007    -6.675    -6.665     0.010
   NaCO3-                1.678e-007  1.311e-007    -6.775    -6.882    -0.107
   Zn(CO3)2-2            1.239e-008  4.620e-009    -7.907    -8.335    -0.429
   FeHCO3+               1.611e-010  1.259e-010    -9.793    -9.900    -0.107
   FeCO3                 1.572e-012  1.608e-012   -11.804   -11.794     0.010
Ca              1.296e-002
   Ca+2                  8.483e-003  3.317e-003    -2.071    -2.479    -0.408
   CaSO4                 3.464e-003  3.545e-003    -2.460    -2.450     0.010
   CaHCO3+               1.006e-003  7.934e-004    -2.997    -3.101    -0.103
   CaCO3                 5.438e-006  5.565e-006    -5.265    -5.255     0.010
   CaHSO4+               2.340e-008  1.828e-008    -7.631    -7.738    -0.107
   CaOH+                 7.984e-010  6.239e-010    -9.098    -9.205    -0.107
Cl              9.818e-003
   Cl-                   9.736e-003  7.442e-003    -2.012    -2.128    -0.117
   MnCl+                 8.081e-005  6.314e-005    -4.093    -4.200    -0.107
   MnCl2                 2.004e-007  2.051e-007    -6.698    -6.688     0.010
   ZnCl+                 2.784e-008  2.175e-008    -7.555    -7.663    -0.107
   MnCl3-                5.380e-010  4.204e-010    -9.269    -9.376    -0.107
   ZnCl2                 1.656e-010  1.695e-010    -9.781    -9.771     0.010
   ZnCl3-                1.811e-012  1.415e-012   -11.742   -11.849    -0.107
   FeCl+                 8.826e-013  6.897e-013   -12.054   -12.161    -0.107
   FeCl+2                3.223e-014  1.201e-014   -13.492   -13.920    -0.429
   ZnCl4-2               1.416e-014  5.279e-015   -13.849   -14.277    -0.429
   FeCl2+                5.110e-016  3.993e-016   -15.292   -15.399    -0.107
   FeCl3                 2.904e-019  2.972e-019   -18.537   -18.527     0.010
Cu(1)           9.408e-019
   Cu+                   9.408e-019  7.007e-019   -18.027   -18.154    -0.128
Cu(2)           4.013e-011
   Cu+2                  2.778e-011  1.113e-011   -10.556   -10.953    -0.397
   CuSO4                 1.190e-011  1.217e-011   -10.925   -10.915     0.010
   Cu(OH)2               2.919e-013  2.987e-013   -12.535   -12.525     0.010
   CuOH+                 1.640e-013  1.261e-013   -12.785   -12.899    -0.114
   Cu(OH)3-              2.610e-020  2.040e-020   -19.583   -19.690    -0.107
   Cu(OH)4-2             1.237e-026  4.612e-027   -25.908   -26.336    -0.429
Fe(2)           3.936e-010
   Fe+2                  1.675e-010  6.714e-011    -9.776   -10.173    -0.397
   FeHCO3+               1.611e-010  1.259e-010    -9.793    -9.900    -0.107
   FeSO4                 6.249e-011  6.395e-011   -10.204   -10.194     0.010
   FeCO3                 1.572e-012  1.608e-012   -11.804   -11.794     0.010
   FeCl+                 8.826e-013  6.897e-013   -12.054   -12.161    -0.107
   FeOH+                 3.079e-014  2.406e-014   -13.512   -13.619    -0.107
   FeHSO4+               4.736e-016  3.700e-016   -15.325   -15.432    -0.107
   Fe(HS)2               0.000e+000  0.000e+000  -206.200  -206.189     0.010
   Fe(HS)3-              0.000e+000  0.000e+000  -306.529  -306.636    -0.107
Fe(3)           2.099e-007
   Fe(OH)2+              1.878e-007  1.468e-007    -6.726    -6.833    -0.107
   Fe(OH)3               2.094e-008  2.143e-008    -7.679    -7.669     0.010
   FeOH+2                1.049e-009  3.911e-010    -8.979    -9.408    -0.429
   Fe(OH)4-              2.835e-011  2.215e-011   -10.548   -10.655    -0.107
   FeSO4+                4.018e-012  3.139e-012   -11.396   -11.503    -0.107
   Fe(SO4)2-             4.708e-013  3.679e-013   -12.327   -12.434    -0.107
   Fe+3                  3.004e-013  5.345e-014   -12.522   -13.272    -0.750
   FeCl+2                3.223e-014  1.201e-014   -13.492   -13.920    -0.429
   FeCl2+                5.110e-016  3.993e-016   -15.292   -15.399    -0.107
   Fe2(OH)2+4            2.132e-016  4.117e-018   -15.671   -17.385    -1.714
   FeHSO4+2              1.985e-017  7.400e-018   -16.702   -17.131    -0.429
   FeCl3                 2.904e-019  2.972e-019   -18.537   -18.527     0.010
   Fe3(OH)4+5            6.022e-020  1.263e-022   -19.220   -21.899    -2.679
H(0)            1.543e-035
   H2                    7.714e-036  7.894e-036   -35.113   -35.103     0.010
K               1.982e-004
   K+                    1.912e-004  1.461e-004    -3.719    -3.835    -0.117
   KSO4-                 7.039e-006  5.500e-006    -5.152    -5.260    -0.107
   KOH                   5.612e-013  5.743e-013   -12.251   -12.241     0.010
Mg              1.556e-002
   Mg+2                  9.637e-003  3.923e-003    -2.016    -2.406    -0.390
   MgSO4                 4.814e-003  4.927e-003    -2.317    -2.307     0.010
   MgHCO3+               1.101e-003  8.606e-004    -2.958    -3.065    -0.107
   MgCO3                 3.654e-006  3.739e-006    -5.437    -5.427     0.010
   MgOH+                 2.066e-008  1.614e-008    -7.685    -7.792    -0.107
Mn(2)           1.183e-002
   Mn+2                  5.198e-003  2.083e-003    -2.284    -2.681    -0.397
   MnHCO3+               4.453e-003  3.480e-003    -2.351    -2.458    -0.107
   MnSO4                 1.939e-003  1.984e-003    -2.713    -2.703     0.010
   MnCO3                 1.614e-004  1.652e-004    -3.792    -3.782     0.010
   MnCl+                 8.081e-005  6.314e-005    -4.093    -4.200    -0.107
   MnCl2                 2.004e-007  2.051e-007    -6.698    -6.688     0.010
   MnOH+                 7.764e-008  6.067e-008    -7.110    -7.217    -0.107
   MnCl3-                5.380e-010  4.204e-010    -9.269    -9.376    -0.107
Mn(3)           4.942e-018
   Mn+3                  4.942e-018  5.366e-019   -17.306   -18.270    -0.964
Na              9.323e-003
   Na+                   9.008e-003  7.051e-003    -2.045    -2.152    -0.106
   NaSO4-                2.423e-004  1.893e-004    -3.616    -3.723    -0.107
   NaHCO3                7.264e-005  7.434e-005    -4.139    -4.129     0.010
   NaCO3-                1.678e-007  1.311e-007    -6.775    -6.882    -0.107
   NaOH                  5.159e-011  5.280e-011   -10.287   -10.277     0.010
O(0)            1.301e-022
   O2                    6.507e-023  6.659e-023   -22.187   -22.177     0.010
S(-2)           0.000e+000
   H2S                   0.000e+000  0.000e+000  -101.607  -101.597     0.010
   HS-                   0.000e+000  0.000e+000  -102.365  -102.483    -0.118
   S-2                   0.000e+000  0.000e+000  -108.922  -109.346    -0.424
   Fe(HS)2               0.000e+000  0.000e+000  -206.200  -206.189     0.010
   Fe(HS)3-              0.000e+000  0.000e+000  -306.529  -306.636    -0.107
S(6)            2.483e-002
   SO4-2                 1.436e-002  5.356e-003    -1.843    -2.271    -0.428
   MgSO4                 4.814e-003  4.927e-003    -2.317    -2.307     0.010
   CaSO4                 3.464e-003  3.545e-003    -2.460    -2.450     0.010
   MnSO4                 1.939e-003  1.984e-003    -2.713    -2.703     0.010
   NaSO4-                2.423e-004  1.893e-004    -3.616    -3.723    -0.107
   KSO4-                 7.039e-006  5.500e-006    -5.152    -5.260    -0.107
   ZnSO4                 1.332e-006  1.364e-006    -5.875    -5.865     0.010
   AlSO4+                9.396e-007  7.342e-007    -6.027    -6.134    -0.107
   HSO4-                 5.867e-007  4.585e-007    -6.232    -6.339    -0.107
   Zn(SO4)2-2            1.593e-007  5.937e-008    -6.798    -7.226    -0.429
   Al(SO4)2-             1.592e-007  1.244e-007    -6.798    -6.905    -0.107
   CaHSO4+               2.340e-008  1.828e-008    -7.631    -7.738    -0.107
   FeSO4                 6.249e-011  6.395e-011   -10.204   -10.194     0.010
   CuSO4                 1.190e-011  1.217e-011   -10.925   -10.915     0.010
   FeSO4+                4.018e-012  3.139e-012   -11.396   -11.503    -0.107
   Fe(SO4)2-             4.708e-013  3.679e-013   -12.327   -12.434    -0.107
   AlHSO4+2              1.538e-013  5.731e-014   -12.813   -13.242    -0.429
[...]
   Zn(CO3)2-2            7.374e-009  2.335e-009    -8.132    -8.632    -0.499
   ZnCl+                 5.155e-009  3.867e-009    -8.288    -8.413    -0.125
   ZnOH+                 3.045e-009  2.284e-009    -8.516    -8.641    -0.125
   Zn(OH)2               2.466e-010  2.573e-010    -9.608    -9.590     0.018
   ZnCl2                 2.626e-011  2.740e-011   -10.581   -10.562     0.018
   ZnCl3-                2.774e-013  2.081e-013   -12.557   -12.682    -0.125
   Zn(OH)3-              1.065e-014  7.985e-015   -13.973   -14.098    -0.125
   ZnCl4-2               2.229e-015  7.059e-016   -14.652   -15.151    -0.499
   Zn(OH)4-2             3.922e-020  1.242e-020   -19.406   -19.906    -0.499

------------------------------Saturation indices-------------------------------

	Phase               SI log IAP  log KT

	Al(OH)3(a)        0.00   10.80   10.80  Al(OH)3
	AlOHSO4          -2.88   -5.08   -2.20  AlOHSO4
	Alunite           5.17    3.77   -1.40  KAl3(SO4)2(OH)6
	Anhydrite        -0.22   -4.58   -4.36  CaSO4
	Aragonite        -0.14   -8.48   -8.34  CaCO3
	Calcite           0.00   -8.48   -8.48  CaCO3
	CH4(g)          -23.50  -26.36   -2.86  CH4
	CO2(g)           -1.63   -3.10   -1.47  CO2
	Dolomite          0.26  -16.83  -17.09  CaMg(CO3)2
	Fe(OH)3          -0.00    4.89    4.89  Fe(OH)3
	Fe(OH)3(a)       -0.00    4.89    4.89  Fe(OH)3
	FeS(ppt)        -14.00  -17.92   -3.92  FeS
	Gibbsite          2.69   10.80    8.11  Al(OH)3
	Goethite          5.89    4.89   -1.00  FeOOH
	Gypsum            0.00   -4.58   -4.58  CaSO4:2H2O
	H2(g)           -11.91  -15.06   -3.15  H2
	H2O(g)           -1.51   -0.00    1.51  H2O
	H2S(g)          -21.94  -22.93   -1.00  H2S
	Halite           -5.93   -4.34    1.58  NaCl
	Hausmannite     -18.28   42.75   61.03  Mn3O4
	Hematite         13.79    9.79   -4.01  Fe2O3
	Jarosite-K       -4.75  -13.96   -9.21  KFe3(SO4)2(OH)6
	Mackinawite     -13.27  -17.92   -4.65  FeS
	Manganite        -9.10   16.24   25.34  MnOOH
	Melanterite      -1.72   -3.93   -2.21  FeSO4:7H2O
	MnO2            -19.19   22.19   41.38  MnO2
	O2(g)           -59.36  -62.26   -2.89  O2
	Pyrite          -17.40  -35.88  -18.48  FeS2
	Pyrochroite      -4.92   10.28   15.20  Mn(OH)2
	Pyrolusite      -19.19   22.19   41.38  MnO2
	Rhodochrosite     1.63   -9.50  -11.13  MnCO3
	Siderite          3.07   -7.82  -10.89  FeCO3
	Smithsonite      -2.47  -12.47  -10.00  ZnCO3
	Sphalerite      -10.94  -22.56  -11.62  ZnS
	Sulfur          -15.90  -11.02    4.88  S
	Zn(OH)2(e)       -4.19    7.31   11.50  Zn(OH)2


Cell 5.

Using solution 5.	Solution after simulation 1.
Using surface 5.	Surface assemblage after simulation 1.
Using pure phase assemblage 5.	Pure-phase assemblage after simulation 1.

-------------------------------Phase assemblage--------------------------------

                                                      Moles in assemblage
Phase                  SI log IAP  log KT      Initial       Final       Delta

Al(OH)3(a)           0.00   10.80   10.80   4.825e-005  4.509e-005 -3.158e-006
AlOHSO4             -3.11   -5.31   -2.20   0.000e+000           0  0.000e+000
Calcite              0.00   -8.48   -8.48   5.800e-002  5.937e-002  1.371e-003
Fe(OH)3              0.00    4.89    4.89   8.199e-001  8.199e-001 -1.538e-005
Gypsum               0.00   -4.58   -4.58   8.798e-002  8.665e-002 -1.331e-003
MnO2               -19.77   21.61   41.38   0.000e+000           0  0.000e+000

------------------------------Surface composition------------------------------

Surf          
	-2.965e-017  Surface + diffuse layer charge, eq
	 3.922e-002  Surface charge, eq
	 9.704e-002  sigma, C/m**2
	 5.347e-002  psi, V
	-2.081e+000  -F*psi/RT
	 1.248e-001  exp(-F*psi/RT)
	 6.000e+002  specific area, m**2/g
	 3.900e+004  m**2 for  6.500e+001 g

	Water in diffuse layer: 3.900e-002 kg, 100.0% of total DDL-water.

	Total moles in diffuse layer (excluding water)

	Element       	     Moles
	Al            	 2.8988e-006
	C             	 4.9937e-004
	Ca            	 1.3723e-004
	Cl            	 1.1571e-003
	Cu            	 2.3660e-008
	Fe            	 5.7910e-004
	H             	 4.7691e-004
	K             	 3.2897e-006
	Mg            	 2.3662e-004
	Mn            	 5.8645e-006
	Na            	 1.3361e-004
	O             	 8.0722e-002
	S             	 1.9807e-002
	Zn            	 4.1626e-009

Surf          
	 1.500e-001  moles
	                                   Mole                     Log
	Species               Moles    Fraction    Molality    Molality

	SurfOH           8.921e-002       0.595  8.927e-002      -1.049
	SurfOMn+         3.298e-002       0.220  3.300e-002      -1.481
	SurfOH2+         1.691e-002       0.113  1.692e-002      -1.772
	SurfO-           1.078e-002       0.072  1.079e-002      -1.967
	SurfOCu+         1.031e-004       0.001  1.032e-004      -3.987
	SurfOZn+         1.126e-005       0.000  1.127e-005      -4.948

-----------------------------Solution composition------------------------------

	Elements           Molality       Moles

	Al               2.451e-005  2.449e-005
	C                8.055e-003  8.051e-003
	Ca               1.138e-002  1.137e-002
	Cl               9.509e-003  9.503e-003
	Cu               3.398e-006  3.396e-006
	Fe               5.328e-002  5.324e-002
	K                2.030e-004  2.029e-004
	Mg               1.605e-002  1.604e-002
	Mn               5.185e-004  5.182e-004
	Na               9.546e-003  9.540e-003
	S                7.732e-002  7.727e-002
	Zn               6.138e-008  6.134e-008

----------------------------Description of solution----------------------------

                                       pH  =   7.109      Charge balance
                                       pe  =  -1.391      Adjusted to redox equilibrium
       Specific Conductance (uS/cm, 25 oC) = 8205
                          Density (g/cm3)  =   1.00808
                        Activity of water  =   0.998
                           Ionic strength  =  1.841e-001
                       Mass of water (kg)  =  9.994e-001
                 Total alkalinity (eq/kg)  =  8.133e-003
                       Total CO2 (mol/kg)  =  8.055e-003
                      Temperature (deg C)  =  25.000
                  Electrical balance (eq)  = -5.742e-011
 Percent error, 100*(Cat-|An|)/(Cat+|An|)  =  -0.00
                               Iterations  =   1
                                  Total H  = 1.109516e+002
                                  Total O  = 5.580507e+001

----------------------------Distribution of species----------------------------

                                                   Log       Log         Log 
   Species                 Molality    Activity  Molality  Activity     Gamma

   OH-                   1.796e-007  1.282e-007    -6.746    -6.892    -0.146
   H+                    9.724e-008  7.789e-008    -7.012    -7.109    -0.096
   H2O                   5.551e+001  9.975e-001     1.744    -0.001     0.000
Al              2.451e-005
   Al(OH)4-              2.329e-005  1.747e-005    -4.633    -4.758    -0.125
   Al(OH)3               6.937e-007  7.238e-007    -6.159    -6.140     0.018
   Al(OH)2+              5.112e-007  3.836e-007    -6.291    -6.416    -0.125
   AlOH+2                1.206e-008  3.821e-009    -7.919    -8.418    -0.499
   AlSO4+                1.626e-009  1.220e-009    -8.789    -8.914    -0.125
   Al(SO4)2-             6.607e-010  4.957e-010    -9.180    -9.305    -0.125
   Al+3                  2.213e-010  3.004e-011    -9.655   -10.522    -0.867
   AlHSO4+2              2.660e-017  8.427e-018   -16.575   -17.074    -0.499
C(-4)           2.038e-025
   CH4                   2.038e-025  2.126e-025   -24.691   -24.672     0.018
C(4)            8.055e-003
   HCO3-                 3.566e-003  2.679e-003    -2.448    -2.572    -0.124
   FeHCO3+               3.411e-003  2.559e-003    -2.467    -2.592    -0.125
   CO2                   4.508e-004  4.704e-004    -3.346    -3.328     0.018
   FeCO3                 3.542e-004  3.696e-004    -3.451    -3.432     0.018
   MgHCO3+               1.159e-004  8.698e-005    -3.936    -4.061    -0.125
   CaHCO3+               9.341e-005  7.019e-005    -4.030    -4.154    -0.124
   MnHCO3+               2.923e-005  2.193e-005    -4.534    -4.659    -0.125
   MnCO3                 1.128e-005  1.177e-005    -4.948    -4.929     0.018
   NaHCO3                9.682e-006  1.010e-005    -5.014    -4.996     0.018
   CaCO3                 5.334e-006  5.565e-006    -5.273    -5.255     0.018
   CO3-2                 5.060e-006  1.613e-006    -5.296    -5.792    -0.496
   MgCO3                 4.094e-006  4.271e-006    -5.388    -5.369     0.018
   NaCO3-                2.684e-007  2.014e-007    -6.571    -6.696    -0.125
   ZnHCO3+               3.460e-009  2.596e-009    -8.461    -8.586    -0.125
   ZnCO3                 2.375e-009  2.477e-009    -8.624    -8.606     0.018
   Zn(CO3)2-2            2.697e-010  8.545e-011    -9.569   -10.068    -0.499
Ca              1.138e-002
   Ca+2                  6.238e-003  2.053e-003    -2.205    -2.688    -0.483
   CaSO4                 5.045e-003  5.263e-003    -2.297    -2.279     0.018
   CaHCO3+               9.341e-005  7.019e-005    -4.030    -4.154    -0.124
   CaCO3                 5.334e-006  5.565e-006    -5.273    -5.255     0.018
   CaOH+                 5.817e-009  4.365e-009    -8.235    -8.360    -0.125
   CaHSO4+               3.201e-009  2.402e-009    -8.495    -8.619    -0.125
Cl              9.509e-003
   Cl-                   9.387e-003  6.744e-003    -2.027    -2.171    -0.144
   FeCl+                 1.185e-004  8.891e-005    -3.926    -4.051    -0.125
   MnCl+                 3.364e-006  2.524e-006    -5.473    -5.598    -0.125
   MnCl2                 7.121e-009  7.429e-009    -8.147    -8.129     0.018
   ZnCl+                 1.862e-010  1.397e-010    -9.730    -9.855    -0.125
   MnCl3-                1.839e-011  1.380e-011   -10.735   -10.860    -0.125
   ZnCl2                 9.457e-013  9.866e-013   -12.024   -12.006     0.018
   ZnCl3-                9.951e-015  7.466e-015   -14.002   -14.127    -0.125
   ZnCl4-2               7.964e-017  2.523e-017   -16.099   -16.598    -0.499
   FeCl+2                2.381e-017  7.544e-018   -16.623   -17.122    -0.499
   FeCl2+                3.029e-019  2.272e-019   -18.519   -18.644    -0.125
   FeCl3                 1.469e-022  1.533e-022   -21.833   -21.815     0.018
Cu(1)           3.397e-006
   Cu+                   3.397e-006  2.341e-006    -5.469    -5.631    -0.162
Cu(2)           1.622e-009
   Cu(OH)2               5.950e-010  6.208e-010    -9.225    -9.207     0.018
   Cu+2                  5.393e-010  1.812e-010    -9.268    -9.742    -0.474
   CuSO4                 4.554e-010  4.751e-010    -9.342    -9.323     0.018
   CuOH+                 3.201e-011  2.320e-011   -10.495   -10.634    -0.140
   Cu(OH)3-              6.385e-016  4.791e-016   -15.195   -15.320    -0.125
   Cu(OH)4-2             3.864e-021  1.224e-021   -20.413   -20.912    -0.499
Fe(2)           5.328e-002
   Fe+2                  2.843e-002  9.551e-003    -1.546    -2.020    -0.474
   FeSO4                 2.091e-002  2.182e-002    -1.680    -1.661     0.018
   FeHCO3+               3.411e-003  2.559e-003    -2.467    -2.592    -0.125
   FeCO3                 3.542e-004  3.696e-004    -3.451    -3.432     0.018
   FeCl+                 1.185e-004  8.891e-005    -3.926    -4.051    -0.125
   FeOH+                 5.155e-005  3.868e-005    -4.288    -4.413    -0.125
   FeHSO4+               1.489e-008  1.117e-008    -7.827    -7.952    -0.125
   Fe(HS)2               5.573e-036  5.815e-036   -35.254   -35.235     0.018
   Fe(HS)3-              0.000e+000  0.000e+000   -54.156   -54.281    -0.125
Fe(3)           3.819e-008
   Fe(OH)3               2.054e-008  2.143e-008    -7.687    -7.669     0.018
   Fe(OH)2+              1.731e-008  1.299e-008    -7.762    -7.886    -0.125
   Fe(OH)4-              3.336e-010  2.503e-010    -9.477    -9.602    -0.125
   FeOH+2                9.667e-012  3.063e-012   -11.015   -11.514    -0.499
   FeSO4+                6.954e-015  5.217e-015   -14.158   -14.283    -0.125
   Fe(SO4)2-             1.954e-015  1.466e-015   -14.709   -14.834    -0.125
   Fe+3                  2.729e-016  3.704e-017   -15.564   -16.431    -0.867
   FeCl+2                2.381e-017  7.544e-018   -16.623   -17.122    -0.499
   FeCl2+                3.029e-019  2.272e-019   -18.519   -18.644    -0.125
   Fe2(OH)2+4            2.505e-020  2.525e-022   -19.601   -21.598    -1.997
   FeHSO4+2              3.434e-021  1.088e-021   -20.464   -20.963    -0.499
   FeCl3                 1.469e-022  1.533e-022   -21.833   -21.815     0.018
   Fe3(OH)4+5            9.027e-025  6.851e-028   -24.044   -27.164    -3.120
H(0)            4.992e-015
   H2                    2.496e-015  2.604e-015   -14.603   -14.584     0.018
K               2.030e-004
   K+                    1.869e-004  1.343e-004    -3.728    -3.872    -0.144
   KSO4-                 1.615e-005  1.212e-005    -4.792    -4.917    -0.125
   KOH                   5.715e-012  5.963e-012   -11.243   -11.225     0.018
Mg              1.605e-002
   MgSO4                 8.009e-003  8.356e-003    -2.096    -2.078     0.018
   Mg+2                  7.924e-003  2.775e-003    -2.101    -2.557    -0.456
   MgHCO3+               1.159e-004  8.698e-005    -3.936    -4.061    -0.125
   MgCO3                 4.094e-006  4.271e-006    -5.388    -5.369     0.018
   MgOH+                 1.720e-007  1.290e-007    -6.765    -6.889    -0.125
Mn(2)           5.185e-004
   Mn+2                  2.734e-004  9.186e-005    -3.563    -4.037    -0.474
   MnSO4                 2.011e-004  2.098e-004    -3.697    -3.678     0.018
   MnHCO3+               2.923e-005  2.193e-005    -4.534    -4.659    -0.125
   MnCO3                 1.128e-005  1.177e-005    -4.948    -4.929     0.018
   MnCl+                 3.364e-006  2.524e-006    -5.473    -5.598    -0.125
   MnOH+                 4.030e-008  3.024e-008    -7.395    -7.519    -0.125
   MnCl2                 7.121e-009  7.429e-009    -8.147    -8.129     0.018
   MnCl3-                1.839e-011  1.380e-011   -10.735   -10.860    -0.125
Mn(3)           1.531e-030
   Mn+3                  1.531e-030  1.153e-031   -29.815   -30.938    -1.123
Na              9.546e-003
   Na+                   8.961e-003  6.705e-003    -2.048    -2.174    -0.126
   NaSO4-                5.754e-004  4.317e-004    -3.240    -3.365    -0.125
   NaHCO3                9.682e-006  1.010e-005    -5.014    -4.996     0.018
   NaCO3-                2.684e-007  2.014e-007    -6.571    -6.696    -0.125
   NaOH                  5.438e-010  5.673e-010    -9.265    -9.246     0.018
O(0)            0.000e+000
   O2                    0.000e+000  0.000e+000   -63.232   -63.214     0.018
S(-2)           1.697e-021
   HS-                   1.158e-021  8.265e-022   -20.936   -21.083    -0.146
   H2S                   5.395e-022  5.629e-022   -21.268   -21.250     0.018
   S-2                   4.175e-027  1.282e-027   -26.379   -26.892    -0.513
   Fe(HS)2               5.573e-036  5.815e-036   -35.254   -35.235     0.018
   Fe(HS)3-              0.000e+000  0.000e+000   -54.156   -54.281    -0.125
S(6)            7.732e-002
   SO4-2                 4.256e-002  1.285e-002    -1.371    -1.891    -0.520
   FeSO4                 2.091e-002  2.182e-002    -1.680    -1.661     0.018
   MgSO4                 8.009e-003  8.356e-003    -2.096    -2.078     0.018
   CaSO4                 5.045e-003  5.263e-003    -2.297    -2.279     0.018
   NaSO4-                5.754e-004  4.317e-004    -3.240    -3.365    -0.125
   MnSO4                 2.011e-004  2.098e-004    -3.697    -3.678     0.018
   KSO4-                 1.615e-005  1.212e-005    -4.792    -4.917    -0.125
   HSO4-                 1.297e-007  9.728e-008    -6.887    -7.012    -0.125
   ZnSO4                 2.222e-008  2.318e-008    -7.653    -7.635     0.018
   FeHSO4+               1.489e-008  1.117e-008    -7.827    -7.952    -0.125
   Zn(SO4)2-2            7.639e-009  2.420e-009    -8.117    -8.616    -0.499
   CaHSO4+               3.201e-009  2.402e-009    -8.495    -8.619    -0.125
   AlSO4+                1.626e-009  1.220e-009    -8.789    -8.914    -0.125
   Al(SO4)2-             6.607e-010  4.957e-010    -9.180    -9.305    -0.125
   CuSO4                 4.554e-010  4.751e-010    -9.342    -9.323     0.018
   FeSO4+                6.954e-015  5.217e-015   -14.158   -14.283    -0.125
   Fe(SO4)2-             1.954e-015  1.466e-015   -14.709   -14.834    -0.125
   AlHSO4+2              2.660e-017  8.427e-018   -16.575   -17.074    -0.499
   FeHSO4+2              3.434e-021  1.088e-021   -20.464   -20.963    -0.499
Zn              6.138e-008
   Zn+2                  2.507e-008  7.697e-009    -7.601    -8.114    -0.513
   ZnSO4                 2.222e-008  2.318e-008    -7.653    -7.635     0.018
   Zn(SO4)2-2            7.639e-009  2.420e-009    -8.117    -8.616    -0.499
   ZnHCO3+               3.460e-009  2.596e-009    -8.461    -8.586    -0.125
   ZnCO3                 2.375e-009  2.477e-009    -8.624    -8.606     0.018
   Zn(CO3)2-2            2.697e-010  8.545e-011    -9.569   -10.068    -0.499
   ZnCl+                 1.862e-010  1.397e-010    -9.730    -9.855    -0.125
   ZnOH+                 1.441e-010  1.081e-010    -9.841    -9.966    -0.125
   Zn(OH)2               1.523e-011  1.589e-011   -10.817   -10.799     0.018
   ZnCl2                 9.457e-013  9.866e-013   -12.024   -12.006     0.018
   ZnCl3-                9.951e-015  7.466e-015   -14.002   -14.127    -0.125
   Zn(OH)3-              8.579e-016  6.437e-016   -15.067   -15.191    -0.125
   ZnCl4-2               7.964e-017  2.523e-017   -16.099   -16.598    -0.499
   Zn(OH)4-2             4.124e-021  1.306e-021   -20.385   -20.884    -0.499

------------------------------Saturation indices-------------------------------

	Phase               SI log IAP  log KT

	Al(OH)3(a)        0.00   10.80   10.80  Al(OH)3
	AlOHSO4          -3.11   -5.31   -2.20  AlOHSO4
	Alunite           4.82    3.42   -1.40  KAl3(SO4)2(OH)6
	Anhydrite        -0.22   -4.58   -4.36  CaSO4
	Aragonite        -0.14   -8.48   -8.34  CaCO3
	Calcite           0.00   -8.48   -8.48  CaCO3
	CH4(g)          -21.81  -24.67   -2.86  CH4
	CO2(g)           -1.86   -3.33   -1.47  CO2
	Dolomite          0.26  -16.83  -17.09  CaMg(CO3)2
	Fe(OH)3           0.00    4.89    4.89  Fe(OH)3
	Fe(OH)3(a)        0.00    4.89    4.89  Fe(OH)3
	FeS(ppt)        -12.08  -15.99   -3.92  FeS
	Gibbsite          2.69   10.80    8.11  Al(OH)3
	Goethite          5.89    4.89   -1.00  FeOOH
	Gypsum            0.00   -4.58   -4.58  CaSO4:2H2O
	H2(g)           -11.43  -14.58   -3.15  H2
	H2O(g)           -1.51   -0.00    1.51  H2O
	H2S(g)          -20.25  -21.25   -1.00  H2S
	Halite           -5.93   -4.34    1.58  NaCl
	Hausmannite     -19.06   41.97   61.03  Mn3O4
	Hematite         13.79    9.79   -4.01  Fe2O3
	Jarosite-K       -5.09  -14.30   -9.21  KFe3(SO4)2(OH)6
	Mackinawite     -11.35  -15.99   -4.65  FeS
	Manganite        -9.44   15.90   25.34  MnOOH
	Melanterite      -1.71   -3.92   -2.21  FeSO4:7H2O
	MnO2            -19.77   21.61   41.38  MnO2
	O2(g)           -60.32  -63.21   -2.89  O2
	Pyrite          -14.27  -32.75  -18.48  FeS2
	Pyrochroite      -5.02   10.18   15.20  Mn(OH)2
	Pyrolusite      -19.77   21.61   41.38  MnO2
	Rhodochrosite     1.30   -9.83  -11.13  MnCO3
	Siderite          3.08   -7.81  -10.89  FeCO3
	Smithsonite      -3.91  -13.91  -10.00  ZnCO3
	Sphalerite      -10.47  -22.09  -11.62  ZnS
	Sulfur          -14.70   -9.82    4.88  S
	Zn(OH)2(e)       -5.40    6.10   11.50  Zn(OH)2

------------------
End of simulation.
------------------

------------------------------------
Reading input data for simulation 2.
------------------------------------

-----------
End of run.
-----------

