   Input file: alkalinity
  Output file: alkalinity.out
Database file: ../database/phreeqc.dat

------------------
Reading data base.
------------------

	SOLUTION_MASTER_SPECIES
	SOLUTION_SPECIES
	PHASES
	EXCHANGE_MASTER_SPECIES
	EXCHANGE_SPECIES
	SURFACE_MASTER_SPECIES
	SURFACE_SPECIES
	RATES
	END
------------------------------------
Reading input data for simulation 1.
------------------------------------

	DATABASE ../database/phreeqc.dat
	PRINT
		alkalinity
	SOLUTION 1 Fixed Carbon, Fixed Na, Fixed pH
		temp 	25.
		units 	mmol/kgw
		pH	8.0 	
		Na	1.0
		C	1.0
		N	1.0
		H(0)	0.001
	END
-------------------------------------------
Beginning of initial solution calculations.
-------------------------------------------

Initial solution 1.	Fixed Carbon, Fixed Na, Fixed pH

-----------------------------Solution composition------------------------------

	Elements           Molality       Moles

	C                1.000e-003  1.000e-003
	H(0)             1.000e-006  1.000e-006
	N                1.000e-003  1.000e-003
	Na               1.000e-003  1.000e-003

----------------------------Description of solution----------------------------

                                       pH  =   8.000    
                                       pe  =   4.000    
       Specific Conductance (uS/cm, 25 oC) = 92
                          Density (g/cm3)  =   0.99711
                        Activity of water  =   1.000
                           Ionic strength  =  9.970e-004
                       Mass of water (kg)  =  1.000e+000
                 Total alkalinity (eq/kg)  =  9.851e-004
                       Total CO2 (mol/kg)  =  1.000e-003
                      Temperature (deg C)  =  25.000
                  Electrical balance (eq)  =  1.494e-005
 Percent error, 100*(Cat-|An|)/(Cat+|An|)  =   0.75
                               Iterations  =   9
                                  Total H  = 1.110134e+002
                                  Total O  = 5.550920e+001

---------------------------------Redox couples---------------------------------

	Redox couple             pe  Eh (volts)

	H(0)/H(1)           -6.4245     -0.3800

----------------------------Distribution of species----------------------------

                                                   Log       Log         Log 
   Species                 Molality    Activity  Molality  Activity     Gamma

   OH-                   1.037e-006  1.001e-006    -5.984    -6.000    -0.016
   H+                    1.034e-008  1.000e-008    -7.985    -8.000    -0.015
   H2O                   5.551e+001  1.000e+000     1.744    -0.000     0.000
C(-4)           0.000e+000
   CH4                   0.000e+000  0.000e+000   -76.285   -76.285     0.000
C(4)            1.000e-003
   HCO3-                 9.732e-004  9.397e-004    -3.012    -3.027    -0.015
   CO2                   2.112e-005  2.113e-005    -4.675    -4.675     0.000
   CO3-2                 5.070e-006  4.407e-006    -5.295    -5.356    -0.061
   NaHCO3                5.096e-007  5.097e-007    -6.293    -6.293     0.000
   NaCO3-                8.202e-008  7.916e-008    -7.086    -7.101    -0.015
H(0)            1.000e-006
   H2                    5.000e-007  5.001e-007    -6.301    -6.301     0.000
N(-3)           8.423e-031
   NH4+                  7.984e-031  7.701e-031   -30.098   -30.113    -0.016
   NH3                   4.387e-032  4.388e-032   -31.358   -31.358     0.000
N(0)            1.000e-003
   N2                    5.000e-004  5.001e-004    -3.301    -3.301     0.000
N(3)            2.484e-033
   NO2-                  2.484e-033  2.396e-033   -32.605   -32.621    -0.016
N(5)            6.685e-038
   NO3-                  6.685e-038  6.449e-038   -37.175   -37.191    -0.016
Na              1.000e-003
   Na+                   9.994e-004  9.647e-004    -3.000    -3.016    -0.015
   NaHCO3                5.096e-007  5.097e-007    -6.293    -6.293     0.000
   NaCO3-                8.202e-008  7.916e-008    -7.086    -7.101    -0.015
   NaOH                  6.372e-010  6.373e-010    -9.196    -9.196     0.000
O(0)            1.663e-038
   O2                    8.315e-039  8.317e-039   -38.080   -38.080     0.000

--------------------------Distribution of alkalinity---------------------------

	Total alkalinity (eq/kgw)  =  9.851e-004

	Species          Alkalinity    Molality   Alk/Mol

	HCO3-            9.732e-004  9.732e-004      1.00
	CO3-2            1.014e-005  5.070e-006      2.00
	OH-              1.037e-006  1.037e-006      1.00
	NaHCO3           5.096e-007  5.096e-007      1.00
	NaCO3-           1.640e-007  8.202e-008      2.00
	H+              -1.034e-008  1.034e-008     -1.00
	NaOH             6.372e-010  6.372e-010      1.00
	NH3              4.387e-032  4.387e-032      1.00

------------------------------Saturation indices-------------------------------

	Phase               SI log IAP  log KT

	CH4(g)          -73.42  -76.28   -2.86  CH4
	CO2(g)           -3.21   -4.68   -1.47  CO2
	H2(g)            -3.15   -6.30   -3.15  H2
	H2O(g)           -1.51   -0.00    1.51  H2O
	N2(g)            -0.04   -3.30   -3.26  N2
	NH3(g)          -33.13  -31.36    1.77  NH3
	O2(g)           -35.19  -38.08   -2.89  O2

------------------
End of simulation.
------------------

------------------------------------
Reading input data for simulation 2.
------------------------------------

	SOLUTION 2 Fixed Carbon, Fixed Na, Adj. pH
		temp 	25.
		units 	mmol/kgw
		pH	8.0 	charge
		Na	1.0
		C	1.0	
		N	1.0
		H(0)	0.001
	END
-------------------------------------------
Beginning of initial solution calculations.
-------------------------------------------

Initial solution 2.	Fixed Carbon, Fixed Na, Adj. pH

-----------------------------Solution composition------------------------------

	Elements           Molality       Moles

	C                1.000e-003  1.000e-003
	H(0)             1.000e-006  1.000e-006
	N                1.000e-003  1.000e-003
	Na               1.000e-003  1.000e-003

----------------------------Description of solution----------------------------

                                       pH  =   8.267      Charge balance
                                       pe  =   4.000    
       Specific Conductance (uS/cm, 25 oC) = 92
                          Density (g/cm3)  =   0.99712
                        Activity of water  =   1.000
                           Ionic strength  =  1.009e-003
                       Mass of water (kg)  =  1.000e+000
                 Total alkalinity (eq/kg)  =  1.000e-003
                       Total CO2 (mol/kg)  =  1.000e-003
                      Temperature (deg C)  =  25.000
                  Electrical balance (eq)  =  2.007e-018
 Percent error, 100*(Cat-|An|)/(Cat+|An|)  =   0.00
                               Iterations  =   9
                                  Total H  = 1.110134e+002
                                  Total O  = 5.550921e+001

---------------------------------Redox couples---------------------------------

	Redox couple             pe  Eh (volts)

	H(0)/H(1)           -6.6912     -0.3958

----------------------------Distribution of species----------------------------

                                                   Log       Log         Log 
   Species                 Molality    Activity  Molality  Activity     Gamma

   OH-                   1.917e-006  1.850e-006    -5.717    -5.733    -0.016
   H+                    5.599e-009  5.412e-009    -8.252    -8.267    -0.015
   H2O                   5.551e+001  1.000e+000     1.744    -0.000     0.000
C(-4)           0.000e+000
   CH4                   0.000e+000  0.000e+000   -78.683   -78.683     0.000
C(4)            1.000e-003
   HCO3-                 9.784e-004  9.445e-004    -3.009    -3.025    -0.015
   CO2                   1.149e-005  1.149e-005    -4.940    -4.940     0.000
   CO3-2                 9.425e-006  8.185e-006    -5.026    -5.087    -0.061
   NaHCO3                5.121e-007  5.122e-007    -6.291    -6.291     0.000
   NaCO3-                1.523e-007  1.470e-007    -6.817    -6.833    -0.016
H(0)            1.000e-006
   H2                    5.000e-007  5.001e-007    -6.301    -6.301     0.000
N(-3)           7.545e-032
   NH4+                  6.849e-032  6.605e-032   -31.164   -31.180    -0.016
   NH3                   6.954e-033  6.955e-033   -32.158   -32.158     0.000
N(0)            1.000e-003
   N2                    5.000e-004  5.001e-004    -3.301    -3.301     0.000
N(3)            2.896e-032
   NO2-                  2.896e-032  2.794e-032   -31.538   -31.554    -0.016
N(5)            2.662e-036
   NO3-                  2.662e-036  2.567e-036   -35.575   -35.591    -0.016
Na              1.000e-003
   Na+                   9.993e-004  9.644e-004    -3.000    -3.016    -0.015
   NaHCO3                5.121e-007  5.122e-007    -6.291    -6.291     0.000
   NaCO3-                1.523e-007  1.470e-007    -6.817    -6.833    -0.016
   NaOH                  1.177e-009  1.177e-009    -8.929    -8.929     0.000
O(0)            1.939e-037
   O2                    9.694e-038  9.697e-038   -37.013   -37.013     0.000

--------------------------Distribution of alkalinity---------------------------

	Total alkalinity (eq/kgw)  =  1.000e-003

	Species          Alkalinity    Molality   Alk/Mol

	HCO3-            9.784e-004  9.784e-004      1.00
	CO3-2            1.885e-005  9.425e-006      2.00
	OH-              1.917e-006  1.917e-006      1.00
	NaHCO3           5.121e-007  5.121e-007      1.00
	NaCO3-           3.047e-007  1.523e-007      2.00
	H+              -5.599e-009  5.599e-009     -1.00
	NaOH             1.177e-009  1.177e-009      1.00
	NH3              6.954e-033  6.954e-033      1.00

------------------------------Saturation indices-------------------------------

	Phase               SI log IAP  log KT

	CH4(g)          -75.82  -78.68   -2.86  CH4
	CO2(g)           -3.47   -4.94   -1.47  CO2
	H2(g)            -3.15   -6.30   -3.15  H2
	H2O(g)           -1.51   -0.00    1.51  H2O
	N2(g)            -0.04   -3.30   -3.26  N2
	NH3(g)          -33.93  -32.16    1.77  NH3
	O2(g)           -34.12  -37.01   -2.89  O2

------------------
End of simulation.
------------------

------------------------------------
Reading input data for simulation 3.
------------------------------------

	PRINT
		censor_species		1e-5
	SOLUTION 3 Fixed Carbon, Adj. Na, Fixed pH
		temp 	25.
		units 	mmol/kgw
		pH	8.0
		Na	1.0 	charge
		C	1.0	
		N	1.0
		H(0)	0.001
	END
-------------------------------------------
Beginning of initial solution calculations.
-------------------------------------------

Initial solution 3.	Fixed Carbon, Adj. Na, Fixed pH

-----------------------------Solution composition------------------------------

	Elements           Molality       Moles

	C                1.000e-003  1.000e-003
	H(0)             1.000e-006  1.000e-006
	N                1.000e-003  1.000e-003
	Na               9.851e-004  9.851e-004  Charge balance

----------------------------Description of solution----------------------------

                                       pH  =   8.000    
                                       pe  =   4.000    
       Specific Conductance (uS/cm, 25 oC) = 91
                          Density (g/cm3)  =   0.99711
                        Activity of water  =   1.000
                           Ionic strength  =  9.895e-004
                       Mass of water (kg)  =  1.000e+000
                 Total alkalinity (eq/kg)  =  9.851e-004
                       Total CO2 (mol/kg)  =  1.000e-003
                      Temperature (deg C)  =  25.000
                  Electrical balance (eq)  =  2.202e-018
 Percent error, 100*(Cat-|An|)/(Cat+|An|)  =   0.00
                               Iterations  =  10
                                  Total H  = 1.110134e+002
                                  Total O  = 5.550920e+001

---------------------------------Redox couples---------------------------------

	Redox couple             pe  Eh (volts)

	H(0)/H(1)           -6.4245     -0.3800

----------------------------Distribution of species----------------------------

                                                   Log       Log         Log 
   Species                 Molality    Activity  Molality  Activity     Gamma

   OH-                   1.037e-006  1.001e-006    -5.984    -6.000    -0.015
   H+                    1.034e-008  1.000e-008    -7.985    -8.000    -0.015
   H2O                   5.551e+001  1.000e+000     1.744    -0.000     0.000
C(-4)           0.000e+000
   CH4                   0.000e+000  0.000e+000   -76.285   -76.285     0.000
C(4)            1.000e-003
   HCO3-                 9.732e-004  9.398e-004    -3.012    -3.027    -0.015
   CO2                   2.113e-005  2.113e-005    -4.675    -4.675     0.000
   CO3-2                 5.069e-006  4.407e-006    -5.295    -5.356    -0.061
   NaHCO3                5.021e-007  5.023e-007    -6.299    -6.299     0.000
   NaCO3-                8.081e-008  7.800e-008    -7.093    -7.108    -0.015
H(0)            1.000e-006
   H2                    5.000e-007  5.001e-007    -6.301    -6.301     0.000
N(-3)           8.421e-031
   NH4+                  7.983e-031  7.701e-031   -30.098   -30.113    -0.016
   NH3                   4.387e-032  4.388e-032   -31.358   -31.358     0.000
N(0)            1.000e-003
   N2                    5.000e-004  5.001e-004    -3.301    -3.301     0.000
N(3)            2.483e-033
   NO2-                  2.483e-033  2.396e-033   -32.605   -32.621    -0.016
N(5)            6.684e-038
   NO3-                  6.684e-038  6.449e-038   -37.175   -37.191    -0.016
Na              9.851e-004
   Na+                   9.845e-004  9.504e-004    -3.007    -3.022    -0.015
   NaHCO3                5.021e-007  5.023e-007    -6.299    -6.299     0.000
   NaCO3-                8.081e-008  7.800e-008    -7.093    -7.108    -0.015
O(0)            1.663e-038
   O2                    8.315e-039  8.317e-039   -38.080   -38.080     0.000

--------------------------Distribution of alkalinity---------------------------

	Total alkalinity (eq/kgw)  =  9.851e-004

	Species          Alkalinity    Molality   Alk/Mol

	HCO3-            9.732e-004  9.732e-004      1.00
	CO3-2            1.014e-005  5.069e-006      2.00
	OH-              1.037e-006  1.037e-006      1.00
	NaHCO3           5.021e-007  5.021e-007      1.00
	NaCO3-           1.616e-007  8.081e-008      2.00
	H+              -1.034e-008  1.034e-008     -1.00

------------------------------Saturation indices-------------------------------

	Phase               SI log IAP  log KT

	CH4(g)          -73.42  -76.28   -2.86  CH4
	CO2(g)           -3.21   -4.68   -1.47  CO2
	H2(g)            -3.15   -6.30   -3.15  H2
	H2O(g)           -1.51   -0.00    1.51  H2O
	N2(g)            -0.04   -3.30   -3.26  N2
	NH3(g)          -33.13  -31.36    1.77  NH3
	O2(g)           -35.19  -38.08   -2.89  O2

------------------
End of simulation.
------------------

------------------------------------
Reading input data for simulation 4.
------------------------------------

	SOLUTION 4 Adj. Carbon, Fixed Na, Fixed pH
		temp 	25.
		units 	mmol/kgw
		pH	8.0
		Na	1.0
		C	1.0 	charge	
		N	1.0
		H(0)	0.001
	END
-------------------------------------------
Beginning of initial solution calculations.
-------------------------------------------

Initial solution 4.	Adj. Carbon, Fixed Na, Fixed pH

-----------------------------Solution composition------------------------------

	Elements           Molality       Moles

	C                1.015e-003  1.015e-003  Charge balance
	H(0)             1.000e-006  1.000e-006
	N                1.000e-003  1.000e-003
	Na               1.000e-003  1.000e-003

----------------------------Description of solution----------------------------

                                       pH  =   8.000    
                                       pe  =   4.000    
       Specific Conductance (uS/cm, 25 oC) = 92
                          Density (g/cm3)  =   0.99712
                        Activity of water  =   1.000
                           Ionic strength  =  1.005e-003
                       Mass of water (kg)  =  1.000e+000
                 Total alkalinity (eq/kg)  =  1.000e-003
                       Total CO2 (mol/kg)  =  1.015e-003
                      Temperature (deg C)  =  25.000
                  Electrical balance (eq)  = -1.709e-019
 Percent error, 100*(Cat-|An|)/(Cat+|An|)  =  -0.00
                               Iterations  =   9
                                  Total H  = 1.110134e+002
                                  Total O  = 5.550924e+001

---------------------------------Redox couples---------------------------------

	Redox couple             pe  Eh (volts)

	H(0)/H(1)           -6.4245     -0.3801

----------------------------Distribution of species----------------------------

                                                   Log       Log         Log 
   Species                 Molality    Activity  Molality  Activity     Gamma

   OH-                   1.038e-006  1.001e-006    -5.984    -6.000    -0.016
   H+                    1.035e-008  1.000e-008    -7.985    -8.000    -0.015
   H2O                   5.551e+001  1.000e+000     1.744    -0.000     0.000
C(-4)           0.000e+000
   CH4                   0.000e+000  0.000e+000   -76.278   -76.278     0.000
C(4)            1.015e-003
   HCO3-                 9.880e-004  9.538e-004    -3.005    -3.021    -0.015
   CO2                   2.144e-005  2.145e-005    -4.669    -4.669     0.000
   CO3-2                 5.149e-006  4.473e-006    -5.288    -5.349    -0.061
   NaHCO3                5.172e-007  5.174e-007    -6.286    -6.286     0.000
   NaCO3-                8.326e-008  8.034e-008    -7.080    -7.095    -0.015
H(0)            1.000e-006
   H2                    5.000e-007  5.001e-007    -6.301    -6.301     0.000
N(-3)           8.424e-031
   NH4+                  7.985e-031  7.701e-031   -30.098   -30.113    -0.016
   NH3                   4.387e-032  4.388e-032   -31.358   -31.358     0.000
N(0)            1.000e-003
   N2                    5.000e-004  5.001e-004    -3.301    -3.301     0.000
N(3)            2.484e-033
   NO2-                  2.484e-033  2.396e-033   -32.605   -32.621    -0.016
N(5)            6.685e-038
   NO3-                  6.685e-038  6.449e-038   -37.175   -37.191    -0.016
Na              1.000e-003
   Na+                   9.994e-004  9.645e-004    -3.000    -3.016    -0.015
   NaHCO3                5.172e-007  5.174e-007    -6.286    -6.286     0.000
   NaCO3-                8.326e-008  8.034e-008    -7.080    -7.095    -0.015
O(0)            1.663e-038
   O2                    8.315e-039  8.317e-039   -38.080   -38.080     0.000

--------------------------Distribution of alkalinity---------------------------

	Total alkalinity (eq/kgw)  =  1.000e-003

	Species          Alkalinity    Molality   Alk/Mol

	HCO3-            9.880e-004  9.880e-004      1.00
	CO3-2            1.030e-005  5.149e-006      2.00
	OH-              1.038e-006  1.038e-006      1.00
	NaHCO3           5.172e-007  5.172e-007      1.00
	NaCO3-           1.665e-007  8.326e-008      2.00
	H+              -1.035e-008  1.035e-008     -1.00

------------------------------Saturation indices-------------------------------

	Phase               SI log IAP  log KT

	CH4(g)          -73.42  -76.28   -2.86  CH4
	CO2(g)           -3.20   -4.67   -1.47  CO2
	H2(g)            -3.15   -6.30   -3.15  H2
	H2O(g)           -1.51   -0.00    1.51  H2O
	N2(g)            -0.04   -3.30   -3.26  N2
	NH3(g)          -33.13  -31.36    1.77  NH3
	O2(g)           -35.19  -38.08   -2.89  O2

------------------
End of simulation.
------------------

------------------------------------
Reading input data for simulation 5.
------------------------------------

	SOLUTION 5 Fixed Alkalinity, Fixed Na, Fixed pH
		temp 	25.
		units 	mmol/kgw
		pH	8.0
		Na	1.0
		Alkalinity	1.0
		N	1.0
		H(0)	0.001
	END
-------------------------------------------
Beginning of initial solution calculations.
-------------------------------------------

Initial solution 5.	Fixed Alkalinity, Fixed Na, Fixed pH

-----------------------------Solution composition------------------------------

	Elements           Molality       Moles

	Alkalinity       1.000e-003  1.000e-003
	H(0)             1.000e-006  1.000e-006
	N                1.000e-003  1.000e-003
	Na               1.000e-003  1.000e-003

----------------------------Description of solution----------------------------

                                       pH  =   8.000    
                                       pe  =   4.000    
       Specific Conductance (uS/cm, 25 oC) = 92
                          Density (g/cm3)  =   0.99712
                        Activity of water  =   1.000
                           Ionic strength  =  1.005e-003
                       Mass of water (kg)  =  1.000e+000
                    Total carbon (mol/kg)  =  1.015e-003
                       Total CO2 (mol/kg)  =  1.015e-003
                      Temperature (deg C)  =  25.000
                  Electrical balance (eq)  = -1.709e-019
 Percent error, 100*(Cat-|An|)/(Cat+|An|)  =  -0.00
                               Iterations  =   9
                                  Total H  = 1.110134e+002
                                  Total O  = 5.550924e+001

---------------------------------Redox couples---------------------------------

	Redox couple             pe  Eh (volts)

	H(0)/H(1)           -6.4245     -0.3801

----------------------------Distribution of species----------------------------

                                                   Log       Log         Log 
   Species                 Molality    Activity  Molality  Activity     Gamma

   OH-                   1.038e-006  1.001e-006    -5.984    -6.000    -0.016
   H+                    1.035e-008  1.000e-008    -7.985    -8.000    -0.015
   H2O                   5.551e+001  1.000e+000     1.744    -0.000     0.000
C(4)            1.015e-003
   HCO3-                 9.880e-004  9.538e-004    -3.005    -3.021    -0.015
   CO2                   2.144e-005  2.145e-005    -4.669    -4.669     0.000
   CO3-2                 5.149e-006  4.473e-006    -5.288    -5.349    -0.061
   NaHCO3                5.172e-007  5.174e-007    -6.286    -6.286     0.000
   NaCO3-                8.326e-008  8.034e-008    -7.080    -7.095    -0.015
H(0)            1.000e-006
   H2                    5.000e-007  5.001e-007    -6.301    -6.301     0.000
N(-3)           8.424e-031
   NH4+                  7.985e-031  7.701e-031   -30.098   -30.113    -0.016
   NH3                   4.387e-032  4.388e-032   -31.358   -31.358     0.000
N(0)            1.000e-003
   N2                    5.000e-004  5.001e-004    -3.301    -3.301     0.000
N(3)            2.484e-033
   NO2-                  2.484e-033  2.396e-033   -32.605   -32.621    -0.016
N(5)            6.685e-038
   NO3-                  6.685e-038  6.449e-038   -37.175   -37.191    -0.016
Na              1.000e-003
   Na+                   9.994e-004  9.645e-004    -3.000    -3.016    -0.015
   NaHCO3                5.172e-007  5.174e-007    -6.286    -6.286     0.000
   NaCO3-                8.326e-008  8.034e-008    -7.080    -7.095    -0.015
O(0)            1.663e-038
   O2                    8.315e-039  8.317e-039   -38.080   -38.080     0.000

--------------------------Distribution of alkalinity---------------------------

	Total alkalinity (eq/kgw)  =  1.000e-003

	Species          Alkalinity    Molality   Alk/Mol

	HCO3-            9.880e-004  9.880e-004      1.00
	CO3-2            1.030e-005  5.149e-006      2.00
	OH-              1.038e-006  1.038e-006      1.00
	NaHCO3           5.172e-007  5.172e-007      1.00
	NaCO3-           1.665e-007  8.326e-008      2.00
	H+              -1.035e-008  1.035e-008     -1.00

------------------------------Saturation indices-------------------------------

	Phase               SI log IAP  log KT

	CO2(g)           -3.20   -4.67   -1.47  CO2
	H2(g)            -3.15   -6.30   -3.15  H2
	H2O(g)           -1.51   -0.00    1.51  H2O
	N2(g)            -0.04   -3.30   -3.26  N2
	NH3(g)          -33.13  -31.36    1.77  NH3
	O2(g)           -35.19  -38.08   -2.89  O2

------------------
End of simulation.
------------------

------------------------------------
Reading input data for simulation 6.
------------------------------------

	SOLUTION 6 Fixed Alkalinity, Adj. Na, Fixed pH
		temp 	25.
		units 	mmol/kgw
		pH	8.0
		Na	1.0 	charge
		Alkalinity	1.0
		N	1.0
		H(0)	0.001
	END
-------------------------------------------
Beginning of initial solution calculations.
-------------------------------------------

Initial solution 6.	Fixed Alkalinity, Adj. Na, Fixed pH

-----------------------------Solution composition------------------------------

	Elements           Molality       Moles

	Alkalinity       1.000e-003  1.000e-003
	H(0)             1.000e-006  1.000e-006
	N                1.000e-003  1.000e-003
	Na               1.000e-003  1.000e-003  Charge balance

----------------------------Description of solution----------------------------

                                       pH  =   8.000    
                                       pe  =   4.000    
       Specific Conductance (uS/cm, 25 oC) = 92
                          Density (g/cm3)  =   0.99712
                        Activity of water  =   1.000
                           Ionic strength  =  1.005e-003
                       Mass of water (kg)  =  1.000e+000
                    Total carbon (mol/kg)  =  1.015e-003
                       Total CO2 (mol/kg)  =  1.015e-003
                      Temperature (deg C)  =  25.000
                  Electrical balance (eq)  =  9.133e-019
 Percent error, 100*(Cat-|An|)/(Cat+|An|)  =   0.00
                               Iterations  =  10
                                  Total H  = 1.110134e+002
                                  Total O  = 5.550924e+001

---------------------------------Redox couples---------------------------------

	Redox couple             pe  Eh (volts)

	H(0)/H(1)           -6.4245     -0.3801

----------------------------Distribution of species----------------------------

                                                   Log       Log         Log 
   Species                 Molality    Activity  Molality  Activity     Gamma

   OH-                   1.038e-006  1.001e-006    -5.984    -6.000    -0.016
   H+                    1.035e-008  1.000e-008    -7.985    -8.000    -0.015
   H2O                   5.551e+001  1.000e+000     1.744    -0.000     0.000
C(4)            1.015e-003
   HCO3-                 9.880e-004  9.538e-004    -3.005    -3.021    -0.015
   CO2                   2.144e-005  2.145e-005    -4.669    -4.669     0.000
   CO3-2                 5.149e-006  4.473e-006    -5.288    -5.349    -0.061
   NaHCO3                5.172e-007  5.174e-007    -6.286    -6.286     0.000
   NaCO3-                8.326e-008  8.034e-008    -7.080    -7.095    -0.015
H(0)            1.000e-006
   H2                    5.000e-007  5.001e-007    -6.301    -6.301     0.000
N(-3)           8.424e-031
   NH4+                  7.985e-031  7.701e-031   -30.098   -30.113    -0.016
   NH3                   4.387e-032  4.388e-032   -31.358   -31.358     0.000
N(0)            1.000e-003
   N2                    5.000e-004  5.001e-004    -3.301    -3.301     0.000
N(3)            2.484e-033
   NO2-                  2.484e-033  2.396e-033   -32.605   -32.621    -0.016
N(5)            6.685e-038
   NO3-                  6.685e-038  6.449e-038   -37.175   -37.191    -0.016
Na              1.000e-003
   Na+                   9.994e-004  9.645e-004    -3.000    -3.016    -0.015
   NaHCO3                5.172e-007  5.174e-007    -6.286    -6.286     0.000
   NaCO3-                8.326e-008  8.034e-008    -7.080    -7.095    -0.015
O(0)            1.663e-038
   O2                    8.315e-039  8.317e-039   -38.080   -38.080     0.000

--------------------------Distribution of alkalinity---------------------------

	Total alkalinity (eq/kgw)  =  1.000e-003

	Species          Alkalinity    Molality   Alk/Mol

	HCO3-            9.880e-004  9.880e-004      1.00
	CO3-2            1.030e-005  5.149e-006      2.00
	OH-              1.038e-006  1.038e-006      1.00
	NaHCO3           5.172e-007  5.172e-007      1.00
	NaCO3-           1.665e-007  8.326e-008      2.00
	H+              -1.035e-008  1.035e-008     -1.00

------------------------------Saturation indices-------------------------------

	Phase               SI log IAP  log KT

	CO2(g)           -3.20   -4.67   -1.47  CO2
	H2(g)            -3.15   -6.30   -3.15  H2
	H2O(g)           -1.51   -0.00    1.51  H2O
	N2(g)            -0.04   -3.30   -3.26  N2
	NH3(g)          -33.13  -31.36    1.77  NH3
	O2(g)           -35.19  -38.08   -2.89  O2

------------------
End of simulation.
------------------

------------------------------------
Reading input data for simulation 7.
------------------------------------

	SOLUTION 7 Fixed Alkalinity, Fixed C, Fixed Na, Adj. pH
		temp 	25.
		units 	mmol/kgw
		pH	8.0
		Na	1.0
		Alkalinity	1.0
		C	1.0
		N	1.0
		H(0)	0.001
	END
-------------------------------------------
Beginning of initial solution calculations.
-------------------------------------------

Initial solution 7.	Fixed Alkalinity, Fixed C, Fixed Na, Adj. pH


pH will be adjusted to obtain desired alkalinity.

-----------------------------Solution composition------------------------------

	Elements           Molality       Moles

	Alkalinity       1.000e-003  1.000e-003
	C                1.000e-003  1.000e-003
	H(0)             1.000e-006  1.000e-006
	N                1.000e-003  1.000e-003
	Na               1.000e-003  1.000e-003

----------------------------Description of solution----------------------------

                                       pH  =   8.267      Adjust alkalinity
                                       pe  =   4.000    
       Specific Conductance (uS/cm, 25 oC) = 92
                          Density (g/cm3)  =   0.99712
                        Activity of water  =   1.000
                           Ionic strength  =  1.009e-003
                       Mass of water (kg)  =  1.000e+000
                       Total CO2 (mol/kg)  =  1.000e-003
                      Temperature (deg C)  =  25.000
                  Electrical balance (eq)  =  5.506e-020
 Percent error, 100*(Cat-|An|)/(Cat+|An|)  =   0.00
                               Iterations  =   9
                                  Total H  = 1.110134e+002
                                  Total O  = 5.550921e+001

---------------------------------Redox couples---------------------------------

	Redox couple             pe  Eh (volts)

	H(0)/H(1)           -6.6912     -0.3958

----------------------------Distribution of species----------------------------

                                                   Log       Log         Log 
   Species                 Molality    Activity  Molality  Activity     Gamma

   OH-                   1.917e-006  1.850e-006    -5.717    -5.733    -0.016
   H+                    5.599e-009  5.412e-009    -8.252    -8.267    -0.015
   H2O                   5.551e+001  1.000e+000     1.744    -0.000     0.000
C(-4)           0.000e+000
   CH4                   0.000e+000  0.000e+000   -78.683   -78.683     0.000
C(4)            1.000e-003
   HCO3-                 9.784e-004  9.445e-004    -3.009    -3.025    -0.015
   CO2                   1.149e-005  1.149e-005    -4.940    -4.940     0.000
   CO3-2                 9.425e-006  8.185e-006    -5.026    -5.087    -0.061
   NaHCO3                5.121e-007  5.122e-007    -6.291    -6.291     0.000
   NaCO3-                1.523e-007  1.470e-007    -6.817    -6.833    -0.016
H(0)            1.000e-006
   H2                    5.000e-007  5.001e-007    -6.301    -6.301     0.000
N(-3)           7.545e-032
   NH4+                  6.849e-032  6.605e-032   -31.164   -31.180    -0.016
   NH3                   6.954e-033  6.955e-033   -32.158   -32.158     0.000
N(0)            1.000e-003
   N2                    5.000e-004  5.001e-004    -3.301    -3.301     0.000
N(3)            2.896e-032
   NO2-                  2.896e-032  2.794e-032   -31.538   -31.554    -0.016
N(5)            2.662e-036
   NO3-                  2.662e-036  2.567e-036   -35.575   -35.591    -0.016
Na              1.000e-003
   Na+                   9.993e-004  9.644e-004    -3.000    -3.016    -0.015
   NaHCO3                5.121e-007  5.122e-007    -6.291    -6.291     0.000
   NaCO3-                1.523e-007  1.470e-007    -6.817    -6.833    -0.016
O(0)            1.939e-037
   O2                    9.694e-038  9.697e-038   -37.013   -37.013     0.000

--------------------------Distribution of alkalinity---------------------------

	Total alkalinity (eq/kgw)  =  1.000e-003

	Species          Alkalinity    Molality   Alk/Mol

	HCO3-            9.784e-004  9.784e-004      1.00
	CO3-2            1.885e-005  9.425e-006      2.00
	OH-              1.917e-006  1.917e-006      1.00
	NaHCO3           5.121e-007  5.121e-007      1.00
	NaCO3-           3.047e-007  1.523e-007      2.00

------------------------------Saturation indices-------------------------------

	Phase               SI log IAP  log KT

	CH4(g)          -75.82  -78.68   -2.86  CH4
	CO2(g)           -3.47   -4.94   -1.47  CO2
	H2(g)            -3.15   -6.30   -3.15  H2
	H2O(g)           -1.51   -0.00    1.51  H2O
	N2(g)            -0.04   -3.30   -3.26  N2
	NH3(g)          -33.93  -32.16    1.77  NH3
	O2(g)           -34.12  -37.01   -2.89  O2

------------------
End of simulation.
------------------

------------------------------------
Reading input data for simulation 8.
------------------------------------

-----------
End of run.
-----------

