   Input file: aquia
  Output file: aquia.out
Database file: phreeqc.dat

------------------
Reading data base.
------------------

	SOLUTION_MASTER_SPECIES
	SOLUTION_SPECIES
	PHASES
	EXCHANGE_MASTER_SPECIES
	EXCHANGE_SPECIES
	SURFACE_MASTER_SPECIES
	SURFACE_SPECIES
	RATES
	END
------------------------------------
Reading input data for simulation 1.
------------------------------------

	EXCHANGE_SPECIES
	  H+ + X- = HX
	 log_k 3.0
	 gamma 9.0 0.0 3.4
	  Na+ + X- = NaX
	 log_k -0.5
	 gamma 4.0 0.075 0.5
	  K+ + X- = KX
	 log_k 0.902
	 gamma 3.5 0.015
	  Ca+2 + 2X- = CaX2
	 log_k 0.93
	 gamma 5.0 0.165
	  Mg+2 + 2X- = MgX2
	 log_k 0.614
	 gamma 5.5 0.20
	SOLUTION 0
	 units mol/kgw
	 pH 7.57
	 pe 8.0
	 temp 15
	 Ca 1.4000E-03
	 Alkalinity 2.8000E-03
	 Na 0.1e-3
	 K 0.05e-3
	 Cl 0.1e-3
	END
-------------------------------------------
Beginning of initial solution calculations.
-------------------------------------------

Initial solution 0.	

-----------------------------Solution composition------------------------------

	Elements           Molality       Moles

	Alkalinity       2.800e-003  2.800e-003
	Ca               1.400e-003  1.400e-003
	Cl               1.000e-004  1.000e-004
	K                5.000e-005  5.000e-005
	Na               1.000e-004  1.000e-004

----------------------------Description of solution----------------------------

                                       pH  =   7.570    
                                       pe  =   8.000    
       Specific Conductance (uS/cm, 25 oC) = 279
                          Density (g/cm3)  =   0.99929
                        Activity of water  =   1.000
                           Ionic strength  =  4.253e-003
                       Mass of water (kg)  =  1.000e+000
                    Total carbon (mol/kg)  =  2.971e-003
                       Total CO2 (mol/kg)  =  2.971e-003
                      Temperature (deg C)  =  15.000
                  Electrical balance (eq)  =  5.000e-005
 Percent error, 100*(Cat-|An|)/(Cat+|An|)  =   0.87
                               Iterations  =   7
                                  Total H  = 1.110152e+002
                                  Total O  = 5.551495e+001

----------------------------Distribution of species----------------------------

                                                   Log       Log         Log 
   Species                 Molality    Activity  Molality  Activity     Gamma

   OH-                   1.796e-007  1.675e-007    -6.746    -6.776    -0.030
   H+                    2.867e-008  2.692e-008    -7.543    -7.570    -0.027
   H2O                   5.551e+001  9.999e-001     1.744    -0.000     0.000
C(4)            2.971e-003
   HCO3-                 2.750e-003  2.570e-003    -2.561    -2.590    -0.029
   CO2                   1.813e-004  1.815e-004    -3.742    -3.741     0.000
   CaHCO3+               3.022e-005  2.825e-005    -4.520    -4.549    -0.029
   CaCO3                 5.296e-006  5.301e-006    -5.276    -5.276     0.000
   CO3-2                 4.664e-006  3.561e-006    -5.331    -5.448    -0.117
   NaHCO3                1.346e-007  1.348e-007    -6.871    -6.870     0.000
   NaCO3-                3.931e-009  3.668e-009    -8.405    -8.436    -0.030
Ca              1.400e-003
   Ca+2                  1.364e-003  1.041e-003    -2.865    -2.982    -0.117
   CaHCO3+               3.022e-005  2.825e-005    -4.520    -4.549    -0.029
   CaCO3                 5.296e-006  5.301e-006    -5.276    -5.276     0.000
   CaOH+                 6.879e-009  6.419e-009    -8.162    -8.193    -0.030
Cl              1.000e-004
   Cl-                   1.000e-004  9.325e-005    -4.000    -4.030    -0.030
H(0)            1.136e-034
   H2                    5.680e-035  5.685e-035   -34.246   -34.245     0.000
K               5.000e-005
   K+                    5.000e-005  4.662e-005    -4.301    -4.331    -0.030
   KOH                   6.000e-012  6.006e-012   -11.222   -11.221     0.000
Na              1.000e-004
   Na+                   9.986e-005  9.324e-005    -4.001    -4.030    -0.030
   NaHCO3                1.346e-007  1.348e-007    -6.871    -6.870     0.000
   NaCO3-                3.931e-009  3.668e-009    -8.405    -8.436    -0.030
   NaOH                  2.286e-011  2.289e-011   -10.641   -10.640     0.000
O(0)            1.180e-027
   O2                    5.899e-028  5.905e-028   -27.229   -27.229     0.000

------------------------------Saturation indices-------------------------------

	Phase               SI log IAP  log KT

	Aragonite        -0.15   -8.43   -8.28  CaCO3
	Calcite          -0.00   -8.43   -8.43  CaCO3
	CO2(g)           -2.40   -3.74   -1.34  CO2
	H2(g)           -31.14  -34.25   -3.11  H2
	H2O(g)           -1.78   -0.00    1.78  H2O
	Halite           -9.62   -8.06    1.56  NaCl
	O2(g)           -24.42  -27.23   -2.81  O2

------------------
End of simulation.
------------------

------------------------------------
Reading input data for simulation 2.
------------------------------------

	 SOLUTION 1-3 # Fill first 10 miles with just average infiltrating water; no X
	 units mol/kgw
	 pH 7.57
	 pe 8.0
	 temp 15
	 Ca 1.4000E-03
	 Alkalinity 2.8000E-03
	 Na 0.1e-3
	 K 0.05e-3
	 Cl 0.1e-3
	EQUILIBRIUM_PHASES 1-3
	 Calcite
	SAVE solution 1-3
	END
-------------------------------------------
Beginning of initial solution calculations.
-------------------------------------------

Initial solution 1.	

-----------------------------Solution composition------------------------------

	Elements           Molality       Moles

	Alkalinity       2.800e-003  2.800e-003
	Ca               1.400e-003  1.400e-003
	Cl               1.000e-004  1.000e-004
	K                5.000e-005  5.000e-005
	Na               1.000e-004  1.000e-004

----------------------------Description of solution----------------------------

                                       pH  =   7.570    
                                       pe  =   8.000    
       Specific Conductance (uS/cm, 25 oC) = 279
                          Density (g/cm3)  =   0.99929
                        Activity of water  =   1.000
                           Ionic strength  =  4.253e-003
                       Mass of water (kg)  =  1.000e+000
                    Total carbon (mol/kg)  =  2.971e-003
                       Total CO2 (mol/kg)  =  2.971e-003
                      Temperature (deg C)  =  15.000
                  Electrical balance (eq)  =  5.000e-005
 Percent error, 100*(Cat-|An|)/(Cat+|An|)  =   0.87
                               Iterations  =   7
                                  Total H  = 1.110152e+002
                                  Total O  = 5.551495e+001

----------------------------Distribution of species----------------------------

                                                   Log       Log         Log 
   Species                 Molality    Activity  Molality  Activity     Gamma

   OH-                   1.796e-007  1.675e-007    -6.746    -6.776    -0.030
   H+                    2.867e-008  2.692e-008    -7.543    -7.570    -0.027
   H2O                   5.551e+001  9.999e-001     1.744    -0.000     0.000
C(4)            2.971e-003
   HCO3-                 2.750e-003  2.570e-003    -2.561    -2.590    -0.029
   CO2                   1.813e-004  1.815e-004    -3.742    -3.741     0.000
   CaHCO3+               3.022e-005  2.825e-005    -4.520    -4.549    -0.029
   CaCO3                 5.296e-006  5.301e-006    -5.276    -5.276     0.000
   CO3-2                 4.664e-006  3.561e-006    -5.331    -5.448    -0.117
   NaHCO3                1.346e-007  1.348e-007    -6.871    -6.870     0.000
   NaCO3-                3.931e-009  3.668e-009    -8.405    -8.436    -0.030
Ca              1.400e-003
   Ca+2                  1.364e-003  1.041e-003    -2.865    -2.982    -0.117
   CaHCO3+               3.022e-005  2.825e-005    -4.520    -4.549    -0.029
   CaCO3                 5.296e-006  5.301e-006    -5.276    -5.276     0.000
   CaOH+                 6.879e-009  6.419e-009    -8.162    -8.193    -0.030
Cl              1.000e-004
   Cl-                   1.000e-004  9.325e-005    -4.000    -4.030    -0.030
H(0)            1.136e-034
   H2                    5.680e-035  5.685e-035   -34.246   -34.245     0.000
K               5.000e-005
   K+                    5.000e-005  4.662e-005    -4.301    -4.331    -0.030
   KOH                   6.000e-012  6.006e-012   -11.222   -11.221     0.000
Na              1.000e-004
   Na+                   9.986e-005  9.324e-005    -4.001    -4.030    -0.030
   NaHCO3                1.346e-007  1.348e-007    -6.871    -6.870     0.000
   NaCO3-                3.931e-009  3.668e-009    -8.405    -8.436    -0.030
   NaOH                  2.286e-011  2.289e-011   -10.641   -10.640     0.000
O(0)            1.180e-027
   O2                    5.899e-028  5.905e-028   -27.229   -27.229     0.000

------------------------------Saturation indices-------------------------------

	Phase               SI log IAP  log KT

	Aragonite        -0.15   -8.43   -8.28  CaCO3
	Calcite          -0.00   -8.43   -8.43  CaCO3
	CO2(g)           -2.40   -3.74   -1.34  CO2
	H2(g)           -31.14  -34.25   -3.11  H2
	H2O(g)           -1.78   -0.00    1.78  H2O
	Halite           -9.62   -8.06    1.56  NaCl
	O2(g)           -24.42  -27.23   -2.81  O2

-----------------------------------------
Beginning of batch-reaction calculations.
-----------------------------------------

Reaction step 1.

Using solution 1.	
Using pure phase assemblage 1.	

-------------------------------Phase assemblage--------------------------------

                                                      Moles in assemblage
Phase                  SI log IAP  log KT      Initial       Final       Delta

Calcite              0.00   -8.43   -8.43   1.000e+001  1.000e+001 -2.576e-007

-----------------------------Solution composition------------------------------

	Elements           Molality       Moles

	C                2.971e-003  2.971e-003
	Ca               1.400e-003  1.400e-003
	Cl               1.000e-004  1.000e-004
	K                5.000e-005  5.000e-005
	Na               1.000e-004  1.000e-004

----------------------------Description of solution----------------------------

                                       pH  =   7.571      Charge balance
                                       pe  =  11.133      Adjusted to redox equilibrium
       Specific Conductance (uS/cm, 25 oC) = 279
                          Density (g/cm3)  =   0.99929
                        Activity of water  =   1.000
                           Ionic strength  =  4.254e-003
                       Mass of water (kg)  =  1.000e+000
                 Total alkalinity (eq/kg)  =  2.801e-003
                       Total CO2 (mol/kg)  =  2.971e-003
                      Temperature (deg C)  =  15.000
                  Electrical balance (eq)  =  5.000e-005
 Percent error, 100*(Cat-|An|)/(Cat+|An|)  =   0.87
                               Iterations  =  11
                                  Total H  = 1.110152e+002
                                  Total O  = 5.551495e+001

----------------------------Distribution of species----------------------------

                                                   Log       Log         Log 
   Species                 Molality    Activity  Molality  Activity     Gamma

   OH-                   1.799e-007  1.677e-007    -6.745    -6.775    -0.030
   H+                    2.863e-008  2.688e-008    -7.543    -7.571    -0.027
   H2O                   5.551e+001  9.999e-001     1.744    -0.000     0.000
C(-4)           0.000e+000
   CH4                   0.000e+000  0.000e+000  -127.596  -127.596     0.000
C(4)            2.971e-003
   HCO3-                 2.750e-003  2.571e-003    -2.561    -2.590    -0.029
   CO2                   1.810e-004  1.812e-004    -3.742    -3.742     0.000
   CaHCO3+               3.023e-005  2.826e-005    -4.520    -4.549    -0.029
   CaCO3                 5.306e-006  5.311e-006    -5.275    -5.275     0.000
   CO3-2                 4.672e-006  3.567e-006    -5.330    -5.448    -0.117
   NaHCO3                1.346e-007  1.348e-007    -6.871    -6.870     0.000
   NaCO3-                3.938e-009  3.674e-009    -8.405    -8.435    -0.030
Ca              1.400e-003
   Ca+2                  1.365e-003  1.041e-003    -2.865    -2.982    -0.117
   CaHCO3+               3.023e-005  2.826e-005    -4.520    -4.549    -0.029
   CaCO3                 5.306e-006  5.311e-006    -5.275    -5.275     0.000
   CaOH+                 6.890e-009  6.430e-009    -8.162    -8.192    -0.030
Cl              1.000e-004
   Cl-                   1.000e-004  9.325e-005    -4.000    -4.030    -0.030
H(0)            0.000e+000
   H2                    0.000e+000  0.000e+000   -40.513   -40.513     0.000
K               5.000e-005
   K+                    5.000e-005  4.662e-005    -4.301    -4.331    -0.030
   KOH                   6.009e-012  6.015e-012   -11.221   -11.221     0.000
Na              1.000e-004
   Na+                   9.986e-005  9.324e-005    -4.001    -4.030    -0.030
   NaHCO3                1.346e-007  1.348e-007    -6.871    -6.870     0.000
   NaCO3-                3.938e-009  3.674e-009    -8.405    -8.435    -0.030
   NaOH                  2.290e-011  2.292e-011   -10.640   -10.640     0.000
O(0)            4.047e-015
   O2                    2.023e-015  2.025e-015   -14.694   -14.694     0.000

------------------------------Saturation indices-------------------------------

	Phase               SI log IAP  log KT

	Aragonite        -0.15   -8.43   -8.28  CaCO3
	Calcite           0.00   -8.43   -8.43  CaCO3
	CH4(g)         -124.82 -127.60   -2.77  CH4
	CO2(g)           -2.40   -3.74   -1.34  CO2
	H2(g)           -37.41  -40.51   -3.11  H2
	H2O(g)           -1.78   -0.00    1.78  H2O
	Halite           -9.62   -8.06    1.56  NaCl
	O2(g)           -11.88  -14.69   -2.81  O2

------------------
End of simulation.
------------------

------------------------------------
Reading input data for simulation 3.
------------------------------------

	 SOLUTION 4-21 # Fill flowline with 18% seawater, CEC = 0.20 M
	 units mol/kgw
	 pH 6.80
	 pe 8.0
	 temp 15
	 dens 1.023
	 Ca 4.3790E-03
	 Mg 9.9162E-03
	 Na 87.381E-03
	 K 1.9044E-03
	 Cl 101.84E-03
	 Alkalinity 15.502E-03
	 S(6) 0.2670E-03
	EQUILIBRIUM_PHASES 4-21
	 Calcite
	SAVE solution 4-21
	END
-------------------------------------------
Beginning of initial solution calculations.
-------------------------------------------

Initial solution 4.	

-----------------------------Solution composition------------------------------

	Elements           Molality       Moles

	Alkalinity       1.550e-002  1.550e-002
	Ca               4.379e-003  4.379e-003
	Cl               1.018e-001  1.018e-001
	K                1.904e-003  1.904e-003
	Mg               9.916e-003  9.916e-003
	Na               8.738e-002  8.738e-002
	S(6)             2.670e-004  2.670e-004

----------------------------Description of solution----------------------------

                                       pH  =   6.800    
                                       pe  =   8.000    
       Specific Conductance (uS/cm, 25 oC) = 11905
                          Density (g/cm3)  =   1.00439
                        Activity of water  =   0.996
                           Ionic strength  =  1.301e-001
                       Mass of water (kg)  =  1.000e+000
                    Total carbon (mol/kg)  =  1.995e-002
                       Total CO2 (mol/kg)  =  1.995e-002
                      Temperature (deg C)  =  15.000
                  Electrical balance (eq)  = -2.000e-007
 Percent error, 100*(Cat-|An|)/(Cat+|An|)  =  -0.00
                               Iterations  =   8
                                  Total H  = 1.110279e+002
                                  Total O  = 5.556267e+001

----------------------------Distribution of species----------------------------

                                                   Log       Log         Log 
   Species                 Molality    Activity  Molality  Activity     Gamma

   H+                    1.940e-007  1.585e-007    -6.712    -6.800    -0.088
   OH-                   3.804e-008  2.833e-008    -7.420    -7.548    -0.128
   H2O                   5.551e+001  9.962e-001     1.744    -0.002     0.000
C(4)            1.995e-002
   HCO3-                 1.424e-002  1.104e-002    -1.846    -1.957    -0.110
   CO2                   4.473e-003  4.609e-003    -2.349    -2.336     0.013
   MgHCO3+               5.823e-004  4.486e-004    -3.235    -3.348    -0.113
   NaHCO3                4.039e-004  4.162e-004    -3.394    -3.381     0.013
   CaHCO3+               2.287e-004  1.774e-004    -3.641    -3.751    -0.110
   MgCO3                 7.410e-006  7.635e-006    -5.130    -5.117     0.013
   CO3-2                 7.187e-006  2.598e-006    -5.143    -5.585    -0.442
   CaCO3                 5.486e-006  5.652e-006    -5.261    -5.248     0.013
   NaCO3-                2.497e-006  1.924e-006    -5.603    -5.716    -0.113
Ca              4.379e-003
   Ca+2                  4.128e-003  1.521e-003    -2.384    -2.818    -0.433
   CaHCO3+               2.287e-004  1.774e-004    -3.641    -3.751    -0.110
   CaSO4                 1.701e-005  1.753e-005    -4.769    -4.756     0.013
   CaCO3                 5.486e-006  5.652e-006    -5.261    -5.248     0.013
   CaOH+                 2.060e-009  1.587e-009    -8.686    -8.799    -0.113
   CaHSO4+               1.888e-011  1.455e-011   -10.724   -10.837    -0.113
Cl              1.018e-001
   Cl-                   1.018e-001  7.619e-002    -0.992    -1.118    -0.126
H(0)            3.826e-033
   H2                    1.913e-033  1.971e-033   -32.718   -32.705     0.013
K               1.904e-003
   K+                    1.904e-003  1.424e-003    -2.720    -2.846    -0.126
   KSO4-                 6.898e-007  5.314e-007    -6.161    -6.275    -0.113
   KOH                   3.012e-011  3.104e-011   -10.521   -10.508     0.013
Mg              9.916e-003
   Mg+2                  9.287e-003  3.591e-003    -2.032    -2.445    -0.413
   MgHCO3+               5.823e-004  4.486e-004    -3.235    -3.348    -0.113
   MgSO4                 3.981e-005  4.102e-005    -4.400    -4.387     0.013
   MgCO3                 7.410e-006  7.635e-006    -5.130    -5.117     0.013
   MgOH+                 4.179e-008  3.219e-008    -7.379    -7.492    -0.113
Na              8.738e-002
   Na+                   8.695e-002  6.701e-002    -1.061    -1.174    -0.113
   NaHCO3                4.039e-004  4.162e-004    -3.394    -3.381     0.013
   NaSO4-                2.597e-005  2.001e-005    -4.586    -4.699    -0.113
   NaCO3-                2.497e-006  1.924e-006    -5.603    -5.716    -0.113
   NaOH                  2.701e-009  2.783e-009    -8.569    -8.555     0.013
O(0)            9.462e-031
   O2                    4.731e-031  4.875e-031   -30.325   -30.312     0.013
S(6)            2.670e-004
   SO4-2                 1.835e-004  6.361e-005    -3.736    -4.196    -0.460
   MgSO4                 3.981e-005  4.102e-005    -4.400    -4.387     0.013
   NaSO4-                2.597e-005  2.001e-005    -4.586    -4.699    -0.113
   CaSO4                 1.701e-005  1.753e-005    -4.769    -4.756     0.013
   KSO4-                 6.898e-007  5.314e-007    -6.161    -6.275    -0.113
   HSO4-                 1.032e-009  7.954e-010    -8.986    -9.099    -0.113
   CaHSO4+               1.888e-011  1.455e-011   -10.724   -10.837    -0.113

------------------------------Saturation indices-------------------------------

	Phase               SI log IAP  log KT

	Anhydrite        -2.68   -7.01   -4.34  CaSO4
	Aragonite        -0.12   -8.40   -8.28  CaCO3
	Calcite           0.03   -8.40   -8.43  CaCO3
	CO2(g)           -1.00   -2.34   -1.34  CO2
	Dolomite          0.42  -16.43  -16.85  CaMg(CO3)2
	Gypsum           -2.43   -7.02   -4.58  CaSO4:2H2O
	H2(g)           -29.60  -32.71   -3.11  H2
	H2O(g)           -1.78   -0.00    1.78  H2O
	Halite           -3.85   -2.29    1.56  NaCl
	O2(g)           -27.50  -30.31   -2.81  O2

-----------------------------------------
Beginning of batch-reaction calculations.
-----------------------------------------

Reaction step 1.

Using solution 4.	
Using pure phase assemblage 4.	

-------------------------------Phase assemblage--------------------------------

                                                      Moles in assemblage
Phase                  SI log IAP  log KT      Initial       Final       Delta

Calcite              0.00   -8.43   -8.43   1.000e+001  1.000e+001  9.093e-005

-----------------------------Solution composition------------------------------

	Elements           Molality       Moles

	C                1.986e-002  1.986e-002
	Ca               4.288e-003  4.288e-003
	Cl               1.018e-001  1.018e-001
	K                1.904e-003  1.904e-003
	Mg               9.916e-003  9.916e-003
	Na               8.738e-002  8.738e-002
	S                2.670e-004  2.670e-004

----------------------------Description of solution----------------------------

                                       pH  =   6.786      Charge balance
                                       pe  =  11.991      Adjusted to redox equilibrium
       Specific Conductance (uS/cm, 25 oC) = 11894
                          Density (g/cm3)  =   1.00438
                        Activity of water  =   0.996
                           Ionic strength  =  1.299e-001
                       Mass of water (kg)  =  1.000e+000
                 Total alkalinity (eq/kg)  =  1.532e-002
                       Total CO2 (mol/kg)  =  1.986e-002
                      Temperature (deg C)  =  15.000
                  Electrical balance (eq)  = -2.000e-007
 Percent error, 100*(Cat-|An|)/(Cat+|An|)  =  -0.00
                               Iterations  =  11
                                  Total H  = 1.110279e+002
                                  Total O  = 5.556240e+001

----------------------------Distribution of species----------------------------

                                                   Log       Log         Log 
   Species                 Molality    Activity  Molality  Activity     Gamma

   H+                    2.001e-007  1.635e-007    -6.699    -6.786    -0.088
   OH-                   3.687e-008  2.746e-008    -7.433    -7.561    -0.128
   H2O                   5.551e+001  9.962e-001     1.744    -0.002     0.000
C(-4)           0.000e+000
   CH4                   0.000e+000  0.000e+000  -126.783  -126.770     0.013
C(4)            1.986e-002
   HCO3-                 1.408e-002  1.092e-002    -1.851    -1.962    -0.110
   CO2                   4.562e-003  4.701e-003    -2.341    -2.328     0.013
   MgHCO3+               5.763e-004  4.440e-004    -3.239    -3.353    -0.113
   NaHCO3                3.994e-004  4.116e-004    -3.399    -3.386     0.013
   CaHCO3+               2.217e-004  1.719e-004    -3.654    -3.765    -0.110
   MgCO3                 7.110e-006  7.326e-006    -5.148    -5.135     0.013
   CO3-2                 6.884e-006  2.490e-006    -5.162    -5.604    -0.442
   CaCO3                 5.154e-006  5.311e-006    -5.288    -5.275     0.013
   NaCO3-                2.394e-006  1.844e-006    -5.621    -5.734    -0.113
Ca              4.288e-003
   Ca+2                  4.045e-003  1.491e-003    -2.393    -2.826    -0.433
   CaHCO3+               2.217e-004  1.719e-004    -3.654    -3.765    -0.110
   CaSO4                 1.670e-005  1.721e-005    -4.777    -4.764     0.013
   CaCO3                 5.154e-006  5.311e-006    -5.288    -5.275     0.013
   CaOH+                 1.957e-009  1.508e-009    -8.708    -8.822    -0.113
   CaHSO4+               1.912e-011  1.473e-011   -10.718   -10.832    -0.113
Cl              1.018e-001
   Cl-                   1.018e-001  7.620e-002    -0.992    -1.118    -0.126
H(0)            0.000e+000
   H2                    0.000e+000  0.000e+000   -40.674   -40.661     0.013
K               1.904e-003
   K+                    1.904e-003  1.424e-003    -2.720    -2.846    -0.126
   KSO4-                 6.909e-007  5.323e-007    -6.161    -6.274    -0.113
   KOH                   2.921e-011  3.009e-011   -10.535   -10.522     0.013
Mg              9.916e-003
   Mg+2                  9.293e-003  3.595e-003    -2.032    -2.444    -0.412
   MgHCO3+               5.763e-004  4.440e-004    -3.239    -3.353    -0.113
   MgSO4                 3.991e-005  4.112e-005    -4.399    -4.386     0.013
   MgCO3                 7.110e-006  7.326e-006    -5.148    -5.135     0.013
   MgOH+                 4.054e-008  3.124e-008    -7.392    -7.505    -0.113
Na              8.738e-002
   Na+                   8.695e-002  6.703e-002    -1.061    -1.174    -0.113
   NaHCO3                3.994e-004  4.116e-004    -3.399    -3.386     0.013
   NaSO4-                2.601e-005  2.004e-005    -4.585    -4.698    -0.113
   NaCO3-                2.394e-006  1.844e-006    -5.621    -5.734    -0.113
   NaOH                  2.619e-009  2.698e-009    -8.582    -8.569     0.013
O(0)            7.706e-015
   O2                    3.853e-015  3.970e-015   -14.414   -14.401     0.013
S(-2)           0.000e+000
   H2S                   0.000e+000  0.000e+000  -125.732  -125.719     0.013
   HS-                   0.000e+000  0.000e+000  -125.890  -126.017    -0.128
   S-2                   0.000e+000  0.000e+000  -132.002  -132.457    -0.455
S(6)            2.670e-004
   SO4-2                 1.837e-004  6.370e-005    -3.736    -4.196    -0.460
   MgSO4                 3.991e-005  4.112e-005    -4.399    -4.386     0.013
   NaSO4-                2.601e-005  2.004e-005    -4.585    -4.698    -0.113
   CaSO4                 1.670e-005  1.721e-005    -4.777    -4.764     0.013
   KSO4-                 6.909e-007  5.323e-007    -6.161    -6.274    -0.113
   HSO4-                 1.067e-009  8.218e-010    -8.972    -9.085    -0.113
   CaHSO4+               1.912e-011  1.473e-011   -10.718   -10.832    -0.113

------------------------------Saturation indices-------------------------------

	Phase               SI log IAP  log KT

	Anhydrite        -2.69   -7.02   -4.34  CaSO4
	Aragonite        -0.15   -8.43   -8.28  CaCO3
	Calcite           0.00   -8.43   -8.43  CaCO3
	CH4(g)         -124.00 -126.77   -2.77  CH4
	CO2(g)           -0.99   -2.33   -1.34  CO2
	Dolomite          0.37  -16.48  -16.85  CaMg(CO3)2
	Gypsum           -2.44   -7.03   -4.58  CaSO4:2H2O
	H2(g)           -37.56  -40.66   -3.11  H2
	H2O(g)           -1.78   -0.00    1.78  H2O
	H2S(g)         -124.84 -125.72   -0.88  H2S
	Halite           -3.85   -2.29    1.56  NaCl
	O2(g)           -11.59  -14.40   -2.81  O2
	Sulfur          -93.29  -88.16    5.12  S

------------------
End of simulation.
------------------

------------------------------------
Reading input data for simulation 4.
------------------------------------

	EXCHANGE 4-21
	 X 0.2
	 equilibrate 4
	END 
-------------------------------------------------------
Beginning of initial exchange-composition calculations.
-------------------------------------------------------

Exchange 4.	

X               2.000e-001 mol

	                               Equiv-    Equivalent      Log 
	Species             Moles      alents      Fraction     Gamma

	HX               4.573e-002  4.573e-002  2.287e-001    -2.710
	NaX              3.807e-002  3.807e-002  1.904e-001    -0.518
	MgX2             2.838e-002  5.677e-002  2.838e-001    -0.412
	CaX2             2.557e-002  5.115e-002  2.557e-001    -0.433
	KX               8.281e-003  8.281e-003  4.141e-002    -0.126

------------------
End of simulation.
------------------

------------------------------------
Reading input data for simulation 5.
------------------------------------

	MIX	13	
		11	0.9	
		13	0.1
	MIX	14	
		13	0.8	
		14	0.2
	MIX	15	
		14	0.7	
		15	0.3
	MIX	16	
		15	0.6	
		16	0.4
	MIX	17	
		16	0.5	
		17	0.5
	MIX	18	
		17	0.4	
		18	0.6
	MIX	19	
		18	0.3	
		19	0.7
	MIX	20	
		19	0.2	
		20	0.8
	MIX	21	
		20	0.1	
		21	0.9
	END
-----------------------------------------
Beginning of batch-reaction calculations.
-----------------------------------------

Reaction step 1.

Using mix 13.	

Mixture 13.	

	 9.000e-001 Solution 11	Solution after simulation 3.                           
	 1.000e-001 Solution 13	Solution after simulation 3.                           

-----------------------------Solution composition------------------------------

	Elements           Molality       Moles

	C                1.986e-002  1.986e-002
	Ca               4.288e-003  4.288e-003
	Cl               1.018e-001  1.018e-001
	K                1.904e-003  1.904e-003
	Mg               9.916e-003  9.916e-003
	Na               8.738e-002  8.738e-002
	S                2.670e-004  2.670e-004

----------------------------Description of solution----------------------------

                                       pH  =   6.786      Charge balance
                                       pe  =  11.991      Adjusted to redox equilibrium
       Specific Conductance (uS/cm, 25 oC) = 11894
                          Density (g/cm3)  =   1.00438
                        Activity of water  =   0.996
                           Ionic strength  =  1.299e-001
                       Mass of water (kg)  =  1.000e+000
                 Total alkalinity (eq/kg)  =  1.532e-002
                       Total CO2 (mol/kg)  =  1.986e-002
                      Temperature (deg C)  =  15.000
                  Electrical balance (eq)  = -2.000e-007
 Percent error, 100*(Cat-|An|)/(Cat+|An|)  =  -0.00
                               Iterations  =   0
                                  Total H  = 1.110279e+002
                                  Total O  = 5.556240e+001

----------------------------Distribution of species----------------------------

                                                   Log       Log         Log 
   Species                 Molality    Activity  Molality  Activity     Gamma

   H+                    2.001e-007  1.635e-007    -6.699    -6.786    -0.088
   OH-                   3.687e-008  2.746e-008    -7.433    -7.561    -0.128
   H2O                   5.551e+001  9.962e-001     1.744    -0.002     0.000
C(-4)           0.000e+000
   CH4                   0.000e+000  0.000e+000  -126.783  -126.770     0.013
C(4)            1.986e-002
   HCO3-                 1.408e-002  1.092e-002    -1.851    -1.962    -0.110
   CO2                   4.562e-003  4.701e-003    -2.341    -2.328     0.013
   MgHCO3+               5.763e-004  4.440e-004    -3.239    -3.353    -0.113
   NaHCO3                3.994e-004  4.116e-004    -3.399    -3.386     0.013
   CaHCO3+               2.217e-004  1.719e-004    -3.654    -3.765    -0.110
   MgCO3                 7.110e-006  7.326e-006    -5.148    -5.135     0.013
   CO3-2                 6.884e-006  2.490e-006    -5.162    -5.604    -0.442
   CaCO3                 5.154e-006  5.311e-006    -5.288    -5.275     0.013
   NaCO3-                2.394e-006  1.844e-006    -5.621    -5.734    -0.113
Ca              4.288e-003
   Ca+2                  4.045e-003  1.491e-003    -2.393    -2.826    -0.433
   CaHCO3+               2.217e-004  1.719e-004    -3.654    -3.765    -0.110
   CaSO4                 1.670e-005  1.721e-005    -4.777    -4.764     0.013
   CaCO3                 5.154e-006  5.311e-006    -5.288    -5.275     0.013
   CaOH+                 1.957e-009  1.508e-009    -8.708    -8.822    -0.113
   CaHSO4+               1.912e-011  1.473e-011   -10.718   -10.832    -0.113
Cl              1.018e-001
   Cl-                   1.018e-001  7.620e-002    -0.992    -1.118    -0.126
H(0)            0.000e+000
   H2                    0.000e+000  0.000e+000   -40.674   -40.661     0.013
K               1.904e-003
   K+                    1.904e-003  1.424e-003    -2.720    -2.846    -0.126
   KSO4-                 6.909e-007  5.323e-007    -6.161    -6.274    -0.113
   KOH                   2.921e-011  3.009e-011   -10.535   -10.522     0.013
Mg              9.916e-003
   Mg+2                  9.293e-003  3.595e-003    -2.032    -2.444    -0.412
   MgHCO3+               5.763e-004  4.440e-004    -3.239    -3.353    -0.113
   MgSO4                 3.991e-005  4.112e-005    -4.399    -4.386     0.013
   MgCO3                 7.110e-006  7.326e-006    -5.148    -5.135     0.013
   MgOH+                 4.054e-008  3.124e-008    -7.392    -7.505    -0.113
Na              8.738e-002
   Na+                   8.695e-002  6.703e-002    -1.061    -1.174    -0.113
   NaHCO3                3.994e-004  4.116e-004    -3.399    -3.386     0.013
   NaSO4-                2.601e-005  2.004e-005    -4.585    -4.698    -0.113
   NaCO3-                2.394e-006  1.844e-006    -5.621    -5.734    -0.113
   NaOH                  2.619e-009  2.698e-009    -8.582    -8.569     0.013
O(0)            7.706e-015
   O2                    3.853e-015  3.970e-015   -14.414   -14.401     0.013
S(-2)           0.000e+000
   H2S                   0.000e+000  0.000e+000  -125.732  -125.719     0.013
   HS-                   0.000e+000  0.000e+000  -125.890  -126.017    -0.128
   S-2                   0.000e+000  0.000e+000  -132.002  -132.457    -0.455
S(6)            2.670e-004
   SO4-2                 1.837e-004  6.370e-005    -3.736    -4.196    -0.460
   MgSO4                 3.991e-005  4.112e-005    -4.399    -4.386     0.013
   NaSO4-                2.601e-005  2.004e-005    -4.585    -4.698    -0.113
   CaSO4                 1.670e-005  1.721e-005    -4.777    -4.764     0.013
   KSO4-                 6.909e-007  5.323e-007    -6.161    -6.274    -0.113
   HSO4-                 1.067e-009  8.218e-010    -8.972    -9.085    -0.113
   CaHSO4+               1.912e-011  1.473e-011   -10.718   -10.832    -0.113

------------------------------Saturation indices-------------------------------

	Phase               SI log IAP  log KT

	Anhydrite        -2.69   -7.02   -4.34  CaSO4
	Aragonite        -0.15   -8.43   -8.28  CaCO3
	Calcite          -0.00   -8.43   -8.43  CaCO3
	CH4(g)         -124.00 -126.77   -2.77  CH4
	CO2(g)           -0.99   -2.33   -1.34  CO2
	Dolomite          0.37  -16.48  -16.85  CaMg(CO3)2
	Gypsum           -2.44   -7.03   -4.58  CaSO4:2H2O
	H2(g)           -37.56  -40.66   -3.11  H2
	H2O(g)           -1.78   -0.00    1.78  H2O
	H2S(g)         -124.84 -125.72   -0.88  H2S
	Halite           -3.85   -2.29    1.56  NaCl
	O2(g)           -11.59  -14.40   -2.81  O2
	Sulfur          -93.29  -88.16    5.12  S

------------------
End of simulation.
------------------

------------------------------------
Reading input data for simulation 6.
------------------------------------

	PRINT
	 reset false
WARNING: Cell-lengths were read for 1 cells. Last value is used till cell 11.
WARNING: Dispersivities were read for 1 cells. Last value is used till cell 11.
WARNING: Maximum iterations exceeded, 100

WARNING: Numerical method failed with this set of convergence parameters.

WARNING: Trying smaller step size, pe step size 10, 5 ... 

WARNING: Maximum iterations exceeded, 100

WARNING: Numerical method failed with this set of convergence parameters.

WARNING: Trying smaller step size, pe step size 10, 5 ... 

WARNING: Maximum iterations exceeded, 100

WARNING: Numerical method failed with this set of convergence parameters.

WARNING: Trying smaller step size, pe step size 10, 5 ... 

WARNING: Maximum iterations exceeded, 100

WARNING: Numerical method failed with this set of convergence parameters.

WARNING: Trying smaller step size, pe step size 10, 5 ... 

WARNING: Maximum iterations exceeded, 100

WARNING: Numerical method failed with this set of convergence parameters.

WARNING: Trying smaller step size, pe step size 10, 5 ... 

WARNING: Maximum iterations exceeded, 100

WARNING: Numerical method failed with this set of convergence parameters.

WARNING: Trying smaller step size, pe step size 10, 5 ... 

WARNING: Maximum iterations exceeded, 100

WARNING: Numerical method failed with this set of convergence parameters.

WARNING: Trying smaller step size, pe step size 10, 5 ... 

WARNING: Maximum iterations exceeded, 100

WARNING: Numerical method failed with this set of convergence parameters.

WARNING: Trying smaller step size, pe step size 10, 5 ... 

WARNING: Maximum iterations exceeded, 100

WARNING: Numerical method failed with this set of convergence parameters.

WARNING: Trying smaller step size, pe step size 10, 5 ... 

WARNING: Maximum iterations exceeded, 100

WARNING: Numerical method failed with this set of convergence parameters.

WARNING: Trying smaller step size, pe step size 10, 5 ... 

WARNING: Maximum iterations exceeded, 100

WARNING: Numerical method failed with this set of convergence parameters.

WARNING: Trying smaller step size, pe step size 10, 5 ... 

WARNING: Maximum iterations exceeded, 100

WARNING: Numerical method failed with this set of convergence parameters.

WARNING: Trying smaller step size, pe step size 10, 5 ... 

WARNING: Maximum iterations exceeded, 100

WARNING: Numerical method failed with this set of convergence parameters.

WARNING: Trying smaller step size, pe step size 10, 5 ... 

WARNING: Maximum iterations exceeded, 100

WARNING: Numerical method failed with this set of convergence parameters.

WARNING: Trying smaller step size, pe step size 10, 5 ... 

WARNING: Maximum iterations exceeded, 100

WARNING: Numerical method failed with this set of convergence parameters.

WARNING: Trying smaller step size, pe step size 10, 5 ... 

WARNING: Maximum iterations exceeded, 100

WARNING: Numerical method failed with this set of convergence parameters.

WARNING: Trying smaller step size, pe step size 10, 5 ... 

WARNING: Maximum iterations exceeded, 100

WARNING: Numerical method failed with this set of convergence parameters.

WARNING: Trying smaller step size, pe step size 10, 5 ... 

WARNING: Maximum iterations exceeded, 100

WARNING: Numerical method failed with this set of convergence parameters.

WARNING: Trying smaller step size, pe step size 10, 5 ... 

WARNING: Maximum iterations exceeded, 100

WARNING: Numerical method failed with this set of convergence parameters.

WARNING: Trying smaller step size, pe step size 10, 5 ... 

WARNING: Maximum iterations exceeded, 100

WARNING: Numerical method failed with this set of convergence parameters.

WARNING: Trying smaller step size, pe step size 10, 5 ... 

WARNING: Maximum iterations exceeded, 100

WARNING: Numerical method failed with this set of convergence parameters.

WARNING: Trying smaller step size, pe step size 10, 5 ... 

WARNING: Maximum iterations exceeded, 100

WARNING: Numerical method failed with this set of convergence parameters.

WARNING: Trying smaller step size, pe step size 10, 5 ... 

WARNING: Maximum iterations exceeded, 100

WARNING: Numerical method failed with this set of convergence parameters.

WARNING: Trying smaller step size, pe step size 10, 5 ... 

WARNING: Maximum iterations exceeded, 100

WARNING: Numerical method failed with this set of convergence parameters.

WARNING: Trying smaller step size, pe step size 10, 5 ... 

WARNING: Maximum iterations exceeded, 100

WARNING: Numerical method failed with this set of convergence parameters.

WARNING: Trying smaller step size, pe step size 10, 5 ... 

WARNING: Maximum iterations exceeded, 100

WARNING: Numerical method failed with this set of convergence parameters.

WARNING: Trying smaller step size, pe step size 10, 5 ... 

WARNING: Maximum iterations exceeded, 100

WARNING: Numerical method failed with this set of convergence parameters.

WARNING: Trying smaller step size, pe step size 10, 5 ... 

WARNING: Maximum iterations exceeded, 100

WARNING: Numerical method failed with this set of convergence parameters.

WARNING: Trying smaller step size, pe step size 10, 5 ... 

WARNING: Maximum iterations exceeded, 100

WARNING: Numerical method failed with this set of convergence parameters.

WARNING: Trying smaller step size, pe step size 10, 5 ... 

WARNING: Maximum iterations exceeded, 100

WARNING: Numerical method failed with this set of convergence parameters.

WARNING: Trying smaller step size, pe step size 10, 5 ... 

WARNING: Maximum iterations exceeded, 100

WARNING: Numerical method failed with this set of convergence parameters.

WARNING: Trying smaller step size, pe step size 10, 5 ... 

WARNING: Maximum iterations exceeded, 100

WARNING: Numerical method failed with this set of convergence parameters.

WARNING: Trying smaller step size, pe step size 10, 5 ... 

WARNING: Maximum iterations exceeded, 100

WARNING: Numerical method failed with this set of convergence parameters.

WARNING: Trying smaller step size, pe step size 10, 5 ... 

