   Input file: ball
  Output file: ball.out
Database file: ../database/phreeqc.dat

------------------
Reading data base.
------------------

	SOLUTION_MASTER_SPECIES
	SOLUTION_SPECIES
	PHASES
	EXCHANGE_MASTER_SPECIES
	EXCHANGE_SPECIES
	SURFACE_MASTER_SPECIES
	SURFACE_SPECIES
	RATES
	END
------------------------------------
Reading input data for simulation 1.
------------------------------------

	DATABASE ../database/phreeqc.dat
	TITLE Test solubility of Cd in synthetic stream water.
	SOLUTION 1  Synthetic stream water
	        units      mmol/kgw
	        pH         7.20
		pe	12
	        temp       25.0
	        C               0.53
	        Ca              0.14
	        Cl              0.17
	        K               0.02
	        Mg              0.08
	        Na              0.29
	        S(6)            0.03 as SO4
	end
-----
TITLE
-----

 Test solubility of Cd in synthetic stream water.

-------------------------------------------
Beginning of initial solution calculations.
-------------------------------------------

Initial solution 1.	Synthetic stream water

-----------------------------Solution composition------------------------------

	Elements           Molality       Moles

	C                5.300e-004  5.300e-004
	Ca               1.400e-004  1.400e-004
	Cl               1.700e-004  1.700e-004
	K                2.000e-005  2.000e-005
	Mg               8.000e-005  8.000e-005
	Na               2.900e-004  2.900e-004
	S(6)             3.000e-005  3.000e-005

----------------------------Description of solution----------------------------

                                       pH  =   7.200    
                                       pe  =  12.000    
       Specific Conductance (uS/cm, 25 oC) = 76
                          Density (g/cm3)  =   0.99709
                        Activity of water  =   1.000
                           Ionic strength  =  9.672e-004
                       Mass of water (kg)  =  1.000e+000
                 Total alkalinity (eq/kg)  =  4.669e-004
                       Total CO2 (mol/kg)  =  5.300e-004
                      Temperature (deg C)  =  25.000
                  Electrical balance (eq)  =  5.309e-005
 Percent error, 100*(Cat-|An|)/(Cat+|An|)  =   3.69
                               Iterations  =   7
                                  Total H  = 1.110129e+002
                                  Total O  = 5.550786e+001

----------------------------Distribution of species----------------------------

                                                   Log       Log         Log 
   Species                 Molality    Activity  Molality  Activity     Gamma

   OH-                   1.643e-007  1.587e-007    -6.784    -6.800    -0.015
   H+                    6.524e-008  6.310e-008    -7.185    -7.200    -0.015
   H2O                   5.551e+001  1.000e+000     1.744    -0.000     0.000
C(-4)           0.000e+000
   CH4                   0.000e+000  0.000e+000  -133.406  -133.406     0.000
C(4)            5.300e-004
   HCO3-                 4.647e-004  4.489e-004    -3.333    -3.348    -0.015
   CO2                   6.367e-005  6.368e-005    -4.196    -4.196     0.000
   CaHCO3+               7.155e-007  6.912e-007    -6.145    -6.160    -0.015
   CO3-2                 3.831e-007  3.337e-007    -6.417    -6.477    -0.060
   MgHCO3+               3.754e-007  3.625e-007    -6.426    -6.441    -0.015
   NaHCO3                7.066e-008  7.067e-008    -7.151    -7.151     0.000
   CaCO3                 6.763e-008  6.765e-008    -7.170    -7.170     0.000
   MgCO3                 2.197e-008  2.197e-008    -7.658    -7.658     0.000
   NaCO3-                1.801e-009  1.739e-009    -8.744    -8.760    -0.015
Ca              1.400e-004
   Ca+2                  1.386e-004  1.207e-004    -3.858    -3.918    -0.060
   CaHCO3+               7.155e-007  6.912e-007    -6.145    -6.160    -0.015
   CaSO4                 6.065e-007  6.067e-007    -6.217    -6.217     0.000
   CaCO3                 6.763e-008  6.765e-008    -7.170    -7.170     0.000
   CaOH+                 3.288e-010  3.174e-010    -9.483    -9.498    -0.015
   CaHSO4+               2.322e-013  2.242e-013   -12.634   -12.649    -0.015
Cl              1.700e-004
   Cl-                   1.700e-004  1.641e-004    -3.770    -3.785    -0.015
H(0)            0.000e+000
   H2                    0.000e+000  0.000e+000   -41.550   -41.550     0.000
K               2.000e-005
   K+                    2.000e-005  1.931e-005    -4.699    -4.714    -0.015
   KSO4-                 3.539e-009  3.417e-009    -8.451    -8.466    -0.015
   KOH                   1.061e-012  1.061e-012   -11.974   -11.974     0.000
Mg              8.000e-005
   Mg+2                  7.919e-005  6.901e-005    -4.101    -4.161    -0.060
   MgSO4                 4.074e-007  4.075e-007    -6.390    -6.390     0.000
   MgHCO3+               3.754e-007  3.625e-007    -6.426    -6.441    -0.015
   MgCO3                 2.197e-008  2.197e-008    -7.658    -7.658     0.000
   MgOH+                 4.112e-009  3.971e-009    -8.386    -8.401    -0.015
Na              2.900e-004
   Na+                   2.899e-004  2.800e-004    -3.538    -3.553    -0.015
   NaHCO3                7.066e-008  7.067e-008    -7.151    -7.151     0.000
   NaSO4-                3.661e-008  3.535e-008    -7.436    -7.452    -0.015
   NaCO3-                1.801e-009  1.739e-009    -8.744    -8.760    -0.015
   NaOH                  2.931e-011  2.931e-011   -10.533   -10.533     0.000
O(0)            1.049e-009
   O2                    5.247e-010  5.248e-010    -9.280    -9.280     0.000
S(6)            3.000e-005
   SO4-2                 2.895e-005  2.519e-005    -4.538    -4.599    -0.060
   CaSO4                 6.065e-007  6.067e-007    -6.217    -6.217     0.000
   MgSO4                 4.074e-007  4.075e-007    -6.390    -6.390     0.000
   NaSO4-                3.661e-008  3.535e-008    -7.436    -7.452    -0.015
   KSO4-                 3.539e-009  3.417e-009    -8.451    -8.466    -0.015
   HSO4-                 1.600e-010  1.545e-010    -9.796    -9.811    -0.015
   CaHSO4+               2.322e-013  2.242e-013   -12.634   -12.649    -0.015

------------------------------Saturation indices-------------------------------

	Phase               SI log IAP  log KT

	Anhydrite        -4.16   -8.52   -4.36  CaSO4
	Aragonite        -2.06  -10.40   -8.34  CaCO3
	Calcite          -1.92  -10.40   -8.48  CaCO3
	CH4(g)         -130.55 -133.41   -2.86  CH4
	CO2(g)           -2.73   -4.20   -1.47  CO2
	Dolomite         -3.94  -21.03  -17.09  CaMg(CO3)2
	Gypsum           -3.94   -8.52   -4.58  CaSO4:2H2O
	H2(g)           -38.40  -41.55   -3.15  H2
	H2O(g)           -1.51   -0.00    1.51  H2O
	Halite           -8.92   -7.34    1.58  NaCl
	O2(g)            -6.39   -9.28   -2.89  O2

------------------
End of simulation.
------------------

------------------------------------
Reading input data for simulation 2.
------------------------------------

	knobs
		logfile
	use solution 1
	EQUILIBRIUM_PHASES 1  Diss. Cd(NO3)2 to equil. w/otavite
	Otavite          0.0     Cd(NO3)2    0.0089
	END
-----------------------------------------
Beginning of batch-reaction calculations.
-----------------------------------------

Reaction step 1.

Using solution 1.	Synthetic stream water
Using pure phase assemblage 1.	Diss. Cd(NO3)2 to equil. w/otavite

-------------------------------Phase assemblage--------------------------------

                                                      Moles in assemblage
Phase                  SI log IAP  log KT      Initial       Final       Delta

Otavite              0.00  -12.10  -12.10
	 Cd(NO3)2           is reactant     8.900e-003  8.897e-003 -2.837e-006

-----------------------------Solution composition------------------------------

	Elements           Molality       Moles

	C                5.300e-004  5.300e-004
	Ca               1.400e-004  1.400e-004
	Cd               2.837e-006  2.837e-006
	Cl               1.700e-004  1.700e-004
	K                2.000e-005  2.000e-005
	Mg               8.000e-005  8.000e-005
	N                5.673e-006  5.673e-006
	Na               2.900e-004  2.900e-004
	S                3.000e-005  3.000e-005

----------------------------Description of solution----------------------------

                                       pH  =   7.200      Charge balance
                                       pe  =  12.031      Adjusted to redox equilibrium
       Specific Conductance (uS/cm, 25 oC) = 77
                          Density (g/cm3)  =   0.99709
                        Activity of water  =   1.000
                           Ionic strength  =  9.755e-004
                       Mass of water (kg)  =  1.000e+000
                 Total alkalinity (eq/kg)  =  4.669e-004
                       Total CO2 (mol/kg)  =  5.300e-004
                      Temperature (deg C)  =  25.000
                  Electrical balance (eq)  =  5.309e-005
 Percent error, 100*(Cat-|An|)/(Cat+|An|)  =   3.66
                               Iterations  =  15
                                  Total H  = 1.110129e+002
                                  Total O  = 5.550788e+001

----------------------------Distribution of species----------------------------

                                                   Log       Log         Log 
   Species                 Molality    Activity  Molality  Activity     Gamma

   OH-                   1.643e-007  1.586e-007    -6.784    -6.800    -0.015
   H+                    6.527e-008  6.311e-008    -7.185    -7.200    -0.015
   H2O                   5.551e+001  1.000e+000     1.744    -0.000     0.000
C(-4)           0.000e+000
   CH4                   0.000e+000  0.000e+000  -133.656  -133.655     0.000
C(4)            5.300e-004
   HCO3-                 4.647e-004  4.488e-004    -3.333    -3.348    -0.015
   CO2                   6.367e-005  6.369e-005    -4.196    -4.196     0.000
   CaHCO3+               7.151e-007  6.907e-007    -6.146    -6.161    -0.015
   CO3-2                 3.832e-007  3.335e-007    -6.417    -6.477    -0.060
   MgHCO3+               3.751e-007  3.622e-007    -6.426    -6.441    -0.015
   NaHCO3                7.063e-008  7.065e-008    -7.151    -7.151     0.000
   CaCO3                 6.756e-008  6.758e-008    -7.170    -7.170     0.000
   CdHCO3+               3.501e-008  3.380e-008    -7.456    -7.471    -0.015
   MgCO3                 2.194e-008  2.195e-008    -7.659    -7.659     0.000
   NaCO3-                1.800e-009  1.738e-009    -8.745    -8.760    -0.015
   CdCO3                 6.308e-010  6.310e-010    -9.200    -9.200     0.000
   Cd(CO3)2-2            7.659e-013  6.654e-013   -12.116   -12.177    -0.061
Ca              1.400e-004
   Ca+2                  1.386e-004  1.206e-004    -3.858    -3.919    -0.060
   CaHCO3+               7.151e-007  6.907e-007    -6.146    -6.161    -0.015
   CaSO4                 6.055e-007  6.056e-007    -6.218    -6.218     0.000
   CaCO3                 6.756e-008  6.758e-008    -7.170    -7.170     0.000
   CaOH+                 3.285e-010  3.172e-010    -9.483    -9.499    -0.015
   CaHSO4+               2.320e-013  2.239e-013   -12.635   -12.650    -0.015
Cd              2.837e-006
   Cd+2                  2.742e-006  2.382e-006    -5.562    -5.623    -0.061
   CdCl+                 3.865e-008  3.732e-008    -7.413    -7.428    -0.015
   CdHCO3+               3.501e-008  3.380e-008    -7.456    -7.471    -0.015
   CdSO4                 1.728e-008  1.729e-008    -7.762    -7.762     0.000
   CdOH+                 3.251e-009  3.139e-009    -8.488    -8.503    -0.015
   CdCO3                 6.308e-010  6.310e-010    -9.200    -9.200     0.000
   CdCl2                 2.552e-011  2.552e-011   -10.593   -10.593     0.000
   Cd(SO4)2-2            5.490e-012  4.770e-012   -11.260   -11.322    -0.061
   Cd(OH)2               2.670e-012  2.671e-012   -11.573   -11.573     0.000
   Cd(CO3)2-2            7.659e-013  6.654e-013   -12.116   -12.177    -0.061
   CdCl3-                2.737e-015  2.642e-015   -14.563   -14.578    -0.015
   Cd(OH)3-              4.918e-018  4.748e-018   -17.308   -17.323    -0.015
   Cd(OH)4-2             7.718e-025  6.705e-025   -24.113   -24.174    -0.061
Cl              1.700e-004
   Cl-                   1.700e-004  1.641e-004    -3.770    -3.785    -0.015
   CdCl+                 3.865e-008  3.732e-008    -7.413    -7.428    -0.015
   CdCl2                 2.552e-011  2.552e-011   -10.593   -10.593     0.000
   CdCl3-                2.737e-015  2.642e-015   -14.563   -14.578    -0.015
H(0)            0.000e+000
   H2                    0.000e+000  0.000e+000   -41.613   -41.612     0.000
K               2.000e-005
   K+                    2.000e-005  1.930e-005    -4.699    -4.714    -0.015
   KSO4-                 3.535e-009  3.413e-009    -8.452    -8.467    -0.015
   KOH                   1.060e-012  1.060e-012   -11.975   -11.975     0.000
Mg              8.000e-005
   Mg+2                  7.919e-005  6.897e-005    -4.101    -4.161    -0.060
   MgSO4                 4.068e-007  4.068e-007    -6.391    -6.391     0.000
   MgHCO3+               3.751e-007  3.622e-007    -6.426    -6.441    -0.015
   MgCO3                 2.194e-008  2.195e-008    -7.659    -7.659     0.000
   MgOH+                 4.110e-009  3.967e-009    -8.386    -8.401    -0.015
N(-3)           0.000e+000
   NH4+                  0.000e+000  0.000e+000   -54.419   -54.434    -0.016
   NH3                   0.000e+000  0.000e+000   -56.479   -56.479     0.000
   NH4SO4-               0.000e+000  0.000e+000   -57.908   -57.923    -0.015
N(0)            1.399e-010
   N2                    6.994e-011  6.995e-011   -10.155   -10.155     0.000
N(3)            7.267e-016
   NO2-                  7.267e-016  7.014e-016   -15.139   -15.154    -0.015
N(5)            5.673e-006
   NO3-                  5.673e-006  5.475e-006    -5.246    -5.262    -0.015
Na              2.900e-004
   Na+                   2.899e-004  2.799e-004    -3.538    -3.553    -0.015
   NaHCO3                7.063e-008  7.065e-008    -7.151    -7.151     0.000
   NaSO4-                3.657e-008  3.530e-008    -7.437    -7.452    -0.015
   NaCO3-                1.800e-009  1.738e-009    -8.745    -8.760    -0.015
   NaOH                  2.930e-011  2.930e-011   -10.533   -10.533     0.000
O(0)            1.399e-009
   O2                    6.995e-010  6.997e-010    -9.155    -9.155     0.000
S(-2)           0.000e+000
   HS-                   0.000e+000  0.000e+000  -131.984  -131.999    -0.015
   H2S                   0.000e+000  0.000e+000  -132.257  -132.257     0.000
   S-2                   0.000e+000  0.000e+000  -137.656  -137.717    -0.061
S(6)            3.000e-005
   SO4-2                 2.893e-005  2.516e-005    -4.539    -4.599    -0.061
   CaSO4                 6.055e-007  6.056e-007    -6.218    -6.218     0.000
   MgSO4                 4.068e-007  4.068e-007    -6.391    -6.391     0.000
   NaSO4-                3.657e-008  3.530e-008    -7.437    -7.452    -0.015
   CdSO4                 1.728e-008  1.729e-008    -7.762    -7.762     0.000
   KSO4-                 3.535e-009  3.413e-009    -8.452    -8.467    -0.015
   HSO4-                 1.599e-010  1.544e-010    -9.796    -9.811    -0.015
   Cd(SO4)2-2            5.490e-012  4.770e-012   -11.260   -11.322    -0.061
   CaHSO4+               2.320e-013  2.239e-013   -12.635   -12.650    -0.015
   NH4SO4-               0.000e+000  0.000e+000   -57.908   -57.923    -0.015

------------------------------Saturation indices-------------------------------

	Phase               SI log IAP  log KT

	Anhydrite        -4.16   -8.52   -4.36  CaSO4
	Aragonite        -2.06  -10.40   -8.34  CaCO3
	Calcite          -1.92  -10.40   -8.48  CaCO3
	Cd(OH)2          -4.87    8.78   13.65  Cd(OH)2
	CdSO4           -10.12  -10.22   -0.10  CdSO4
	CH4(g)         -130.80 -133.66   -2.86  CH4
	CO2(g)           -2.73   -4.20   -1.47  CO2
	Dolomite         -3.94  -21.03  -17.09  CaMg(CO3)2
	Gypsum           -3.94   -8.52   -4.58  CaSO4:2H2O
	H2(g)           -38.46  -41.61   -3.15  H2
	H2O(g)           -1.51   -0.00    1.51  H2O
	H2S(g)         -131.26 -132.26   -1.00  H2S
	Halite           -8.92   -7.34    1.58  NaCl
	N2(g)            -6.90  -10.16   -3.26  N2
	NH3(g)          -58.25  -56.48    1.77  NH3
	O2(g)            -6.26   -9.16   -2.89  O2
	Otavite           0.00  -12.10  -12.10  CdCO3
	Sulfur          -98.68  -93.79    4.88  S

------------------
End of simulation.
------------------

------------------------------------
Reading input data for simulation 3.
------------------------------------

-----------
End of run.
-----------

