   Input file: calc_SC
  Output file: calc_SC.out
Database file: ../database/phreeqc.dat

------------------
Reading data base.
------------------

	SOLUTION_MASTER_SPECIES
	SOLUTION_SPECIES
	PHASES
	EXCHANGE_MASTER_SPECIES
	EXCHANGE_SPECIES
	SURFACE_MASTER_SPECIES
	SURFACE_SPECIES
	RATES
	END
------------------------------------
Reading input data for simulation 1.
------------------------------------

	DATABASE ../database/phreeqc.dat
	SOLUTION 1
	 pH 6 charge
	 Ca 2
	 S(6) 2
	 temp 99
	REACTION_TEMPERATURE
	 25
	USER_PRINT
	 10 if step_no > 0 then goto 100
		 20 put(SC, 1)
		 30 viscos = 10^-((1.37023 * (TC - 20) + 0.000836 * (TC - 20)^2) / (109 + TC)) # mPa.s
		 40 put (viscos, 2)
		 50 put (TK, 3)
		 60 goto 200
	 100 print 'Temperatures (C) :    ', get(3) - 273.16, ' / ', TC
	 110 viscos = 10^-((1.37023 * (TC - 20) + 0.000836 * (TC - 20)^2) / (109 + TC))
	 112 print 'Viscosities (mPa.s):  ', get(2), ' / ', viscos
	 120 print 'Ratio of calc.d SC.s: ', get(1) / SC
	 130 print 'Ratio of Dw.s :       ', viscos / get(2)
	 200 end
	END
-------------------------------------------
Beginning of initial solution calculations.
-------------------------------------------

Initial solution 1.	

----------------------------------User print-----------------------------------


-----------------------------Solution composition------------------------------

	Elements           Molality       Moles

	Ca               2.000e-003  2.000e-003
	S(6)             2.000e-003  2.000e-003

----------------------------Description of solution----------------------------

                                       pH  =   6.262      Charge balance
                                       pe  =   4.000    
       Specific Conductance (uS/cm, 99 oC) = 1182
                          Density (g/cm3)  =   0.96949
                        Activity of water  =   1.000
                           Ionic strength  =  6.376e-003
                       Mass of water (kg)  =  1.000e+000
                 Total alkalinity (eq/kg)  = -4.635e-018
                    Total carbon (mol/kg)  =  0.000e+000
                       Total CO2 (mol/kg)  =  0.000e+000
                      Temperature (deg C)  =  99.000
                  Electrical balance (eq)  = -1.354e-014
 Percent error, 100*(Cat-|An|)/(Cat+|An|)  =  -0.00
                               Iterations  =   4
                                  Total H  = 1.110124e+002
                                  Total O  = 5.551422e+001

----------------------------Distribution of species----------------------------

                                                   Log       Log         Log 
   Species                 Molality    Activity  Molality  Activity     Gamma

   OH-                   1.058e-006  9.564e-007    -5.976    -6.019    -0.044
   H+                    5.978e-007  5.472e-007    -6.223    -6.262    -0.038
   H2O                   5.551e+001  9.999e-001     1.744    -0.000     0.000
Ca              2.000e-003
   Ca+2                  1.594e-003  1.084e-003    -2.798    -2.965    -0.167
   CaSO4                 4.061e-004  4.067e-004    -3.391    -3.391     0.001
   CaHSO4+               5.921e-009  5.361e-009    -8.228    -8.271    -0.043
   CaOH+                 3.631e-010  3.288e-010    -9.440    -9.483    -0.043
H(0)            2.346e-024
   H2                    1.173e-024  1.175e-024   -23.931   -23.930     0.001
O(0)            8.190e-026
   O2                    4.095e-026  4.101e-026   -25.388   -25.387     0.001
S(6)            2.000e-003
   SO4-2                 1.593e-003  1.081e-003    -2.798    -2.966    -0.169
   CaSO4                 4.061e-004  4.067e-004    -3.391    -3.391     0.001
   HSO4-                 4.542e-007  4.113e-007    -6.343    -6.386    -0.043
   CaHSO4+               5.921e-009  5.361e-009    -8.228    -8.271    -0.043

------------------------------Saturation indices-------------------------------

	Phase               SI log IAP  log KT

	Anhydrite        -0.63   -5.93   -5.30  CaSO4
	Gypsum           -1.09   -5.93   -4.85  CaSO4:2H2O
	H2(g)           -20.52  -23.93   -3.41  H2
	H2O(g)            0.02   -0.00   -0.02  H2O
	O2(g)           -22.27  -25.39   -3.11  O2

-----------------------------------------
Beginning of batch-reaction calculations.
-----------------------------------------

Reaction step 1.

Using solution 1.	
Using temperature 1.	

----------------------------------User print-----------------------------------

Temperatures (C) :               99  /            25 
Viscosities (mPa.s):    2.8477e-001  /   8.8862e-001 
Ratio of calc.d SC.s:   2.8602e+000 
Ratio of Dw.s :         3.1205e+000 

-----------------------------Solution composition------------------------------

	Elements           Molality       Moles

	Ca               2.000e-003  2.000e-003
	S                2.000e-003  2.000e-003

----------------------------Description of solution----------------------------

                                       pH  =   7.018      Charge balance
                                       pe  =  10.718      Adjusted to redox equilibrium
       Specific Conductance (uS/cm, 25 oC) = 413
                          Density (g/cm3)  =   0.99733
                        Activity of water  =   1.000
                           Ionic strength  =  6.825e-003
                       Mass of water (kg)  =  1.000e+000
                 Total alkalinity (eq/kg)  =  1.008e-016
                    Total carbon (mol/kg)  =  0.000e+000
                       Total CO2 (mol/kg)  =  0.000e+000
                      Temperature (deg C)  =  25.000
                  Electrical balance (eq)  = -1.873e-014
 Percent error, 100*(Cat-|An|)/(Cat+|An|)  =  -0.00
                               Iterations  =  10
                                  Total H  = 1.110124e+002
                                  Total O  = 5.551422e+001

----------------------------Distribution of species----------------------------

                                                   Log       Log         Log 
   Species                 Molality    Activity  Molality  Activity     Gamma

   OH-                   1.140e-007  1.043e-007    -6.943    -6.982    -0.038
   H+                    1.037e-007  9.596e-008    -6.984    -7.018    -0.034
   H2O                   5.551e+001  9.999e-001     1.744    -0.000     0.000
Ca              2.000e-003
   Ca+2                  1.706e-003  1.216e-003    -2.768    -2.915    -0.147
   CaSO4                 2.937e-004  2.941e-004    -3.532    -3.531     0.001
   CaOH+                 2.294e-009  2.103e-009    -8.639    -8.677    -0.038
   CaHSO4+               1.804e-010  1.654e-010    -9.744    -9.782    -0.038
H(0)            4.772e-039
   H2                    2.386e-039  2.390e-039   -38.622   -38.622     0.001
O(0)            1.458e-015
   O2                    7.288e-016  7.299e-016   -15.137   -15.137     0.001
S(-2)           0.000e+000
   HS-                   0.000e+000  0.000e+000  -118.132  -118.171    -0.038
   H2S                   0.000e+000  0.000e+000  -118.248  -118.247     0.001
   S-2                   0.000e+000  0.000e+000  -123.923  -124.071    -0.148
S(6)            2.000e-003
   SO4-2                 1.706e-003  1.212e-003    -2.768    -2.916    -0.148
   CaSO4                 2.937e-004  2.941e-004    -3.532    -3.531     0.001
   HSO4-                 1.234e-008  1.131e-008    -7.909    -7.947    -0.038
   CaHSO4+               1.804e-010  1.654e-010    -9.744    -9.782    -0.038

------------------------------Saturation indices-------------------------------

	Phase               SI log IAP  log KT

	Anhydrite        -1.47   -5.83   -4.36  CaSO4
	Gypsum           -1.25   -5.83   -4.58  CaSO4:2H2O
	H2(g)           -35.47  -38.62   -3.15  H2
	H2O(g)           -1.51   -0.00    1.51  H2O
	H2S(g)         -117.25 -118.25   -1.00  H2S
	O2(g)           -12.24  -15.14   -2.89  O2
	Sulfur          -87.66  -82.78    4.88  S

------------------
End of simulation.
------------------

------------------------------------
Reading input data for simulation 2.
------------------------------------

	SOLUTION 2
	 pH 7 charge
	 K 4
	 Cl 4
	 temp 99 
	REACTION_TEMPERATURE
	 25
-------------------------------------------
Beginning of initial solution calculations.
-------------------------------------------

Initial solution 2.	

----------------------------------User print-----------------------------------


-----------------------------Solution composition------------------------------

	Elements           Molality       Moles

	Cl               4.000e-003  4.000e-003
	K                4.000e-003  4.000e-003

----------------------------Description of solution----------------------------

                                       pH  =   6.139      Charge balance
                                       pe  =   4.000    
       Specific Conductance (uS/cm, 99 oC) = 1783
                          Density (g/cm3)  =   0.96939
                        Activity of water  =   1.000
                           Ionic strength  =  4.001e-003
                       Mass of water (kg)  =  1.000e+000
                 Total alkalinity (eq/kg)  = -1.064e-014
                    Total carbon (mol/kg)  =  0.000e+000
                       Total CO2 (mol/kg)  =  0.000e+000
                      Temperature (deg C)  =  99.000
                  Electrical balance (eq)  =  1.088e-014
 Percent error, 100*(Cat-|An|)/(Cat+|An|)  =   0.00
                               Iterations  =   4
                                  Total H  = 1.110124e+002
                                  Total O  = 5.550622e+001

----------------------------Distribution of species----------------------------

                                                   Log       Log         Log 
   Species                 Molality    Activity  Molality  Activity     Gamma

   H+                    7.814e-007  7.264e-007    -6.107    -6.139    -0.032
   OH-                   7.814e-007  7.205e-007    -6.107    -6.142    -0.035
   H2O                   5.551e+001  9.999e-001     1.744    -0.000     0.000
Cl              4.000e-003
   Cl-                   4.000e-003  3.689e-003    -2.398    -2.433    -0.035
H(0)            4.136e-024
   H2                    2.068e-024  2.070e-024   -23.684   -23.684     0.000
K               4.000e-003
   K+                    4.000e-003  3.689e-003    -2.398    -2.433    -0.035
   KOH                   1.759e-011  1.761e-011   -10.755   -10.754     0.000
O(0)            2.639e-026
   O2                    1.320e-026  1.321e-026   -25.880   -25.879     0.000

------------------------------Saturation indices-------------------------------

	Phase               SI log IAP  log KT

	H2(g)           -20.28  -23.68   -3.41  H2
	H2O(g)            0.02   -0.00   -0.02  H2O
	O2(g)           -22.76  -25.88   -3.11  O2

-----------------------------------------
Beginning of batch-reaction calculations.
-----------------------------------------

Reaction step 1.

Using solution 2.	
Using temperature 1.	

----------------------------------User print-----------------------------------

Temperatures (C) :               99  /            25 
Viscosities (mPa.s):    2.8477e-001  /   8.8862e-001 
Ratio of calc.d SC.s:   3.1001e+000 
Ratio of Dw.s :         3.1205e+000 

-----------------------------Solution composition------------------------------

	Elements           Molality       Moles

	Cl               4.000e-003  4.000e-003
	K                4.000e-003  4.000e-003

----------------------------Description of solution----------------------------

                                       pH  =   6.998      Charge balance
                                       pe  =  10.878      Adjusted to redox equilibrium
       Specific Conductance (uS/cm, 25 oC) = 575
                          Density (g/cm3)  =   0.99724
                        Activity of water  =   1.000
                           Ionic strength  =  4.000e-003
                       Mass of water (kg)  =  1.000e+000
                 Total alkalinity (eq/kg)  = -1.797e-014
                    Total carbon (mol/kg)  =  0.000e+000
                       Total CO2 (mol/kg)  =  0.000e+000
                      Temperature (deg C)  =  25.000
                  Electrical balance (eq)  =  1.977e-014
 Percent error, 100*(Cat-|An|)/(Cat+|An|)  =   0.00
                               Iterations  =  10
                                  Total H  = 1.110124e+002
                                  Total O  = 5.550622e+001

----------------------------Distribution of species----------------------------

                                                   Log       Log         Log 
   Species                 Molality    Activity  Molality  Activity     Gamma

   H+                    1.069e-007  1.004e-007    -6.971    -6.998    -0.027
   OH-                   1.068e-007  9.965e-008    -6.971    -7.002    -0.030
   H2O                   5.551e+001  9.999e-001     1.744    -0.000     0.000
Cl              4.000e-003
   Cl-                   4.000e-003  3.733e-003    -2.398    -2.428    -0.030
H(0)            2.500e-039
   H2                    1.250e-039  1.251e-039   -38.903   -38.903     0.000
K               4.000e-003
   K+                    4.000e-003  3.733e-003    -2.398    -2.428    -0.030
   KOH                   1.287e-010  1.289e-010    -9.890    -9.890     0.000
O(0)            5.319e-015
   O2                    2.660e-015  2.662e-015   -14.575   -14.575     0.000

------------------------------Saturation indices-------------------------------

	Phase               SI log IAP  log KT

	H2(g)           -35.75  -38.90   -3.15  H2
	H2O(g)           -1.51   -0.00    1.51  H2O
	O2(g)           -11.68  -14.57   -2.89  O2

------------------
End of simulation.
------------------

------------------------------------
Reading input data for simulation 3.
------------------------------------

-----------
End of run.
-----------

