   Input file: co2
  Output file: co2.out
Database file: ../database/iso.dat

------------------
Reading data base.
------------------

	SOLUTION_MASTER_SPECIES
	ISOTOPES
	ISOTOPE_RATIOS
	ISOTOPE_ALPHAS
	NAMED_EXPRESSIONS
	NAMED_EXPRESSIONS
	SOLUTION_SPECIES
	SOLUTION_SPECIES
	SOLUTION_SPECIES
	PHASES
	SOLUTION_SPECIES
	CALCULATE_VALUES
	SOLUTION_MASTER_SPECIES
	ISOTOPES
	ISOTOPE_RATIOS
	ISOTOPE_ALPHAS
	CALCULATE_VALUES
	NAMED_EXPRESSIONS
	SOLUTION_SPECIES
	PHASES
	SOLUTION_MASTER_SPECIES
	ISOTOPE_RATIOS
	ISOTOPE_ALPHAS
	CALCULATE_VALUES
	NAMED_EXPRESSIONS
	SOLUTION_SPECIES
	PHASES
	SOLUTION_MASTER_SPECIES
	ISOTOPE_RATIOS
	ISOTOPE_ALPHAS
	CALCULATE_VALUES
	NAMED_EXPRESSIONS
	SOLUTION_SPECIES
	PHASES
	SOLUTION_MASTER_SPECIES
	ISOTOPES
	ISOTOPE_RATIOS
	ISOTOPE_ALPHAS
	CALCULATE_VALUES
	NAMED_EXPRESSIONS
	SOLUTION_SPECIES
	PHASES
	SOLUTION_MASTER_SPECIES
	ISOTOPES
	ISOTOPE_RATIOS
	ISOTOPE_ALPHAS
	CALCULATE_VALUES
	NAMED_EXPRESSIONS
	SOLUTION_SPECIES
	PHASES
	END
------------------------------------
Reading input data for simulation 1.
------------------------------------

	DATABASE ../database/iso.dat
	SOLUTION 1
		pH	2
		C	1	CO2(g)	-3.5
		[18O]	0
		D	0
		[13C]	-7
		Cl	1	charge
	END
-------------------------------------------
Beginning of initial solution calculations.
-------------------------------------------

Initial solution 1.	

-----------------------------------Isotopes------------------------------------

   Isotope	    Molality	       Moles	       Ratio	       Units

         H	1.11028e+002	1.11028e+002
         D	1.72937e-002	1.72937e-002	0.00000e+000	      permil
         T	0.00000e+000	0.00000e+000	0.00000e+000	          TU

         C	1.06216e-005	1.06216e-005
     [13C]	1.17920e-007	1.17920e-007	-7.00000e+000	      permil
     [14C]	0.00000e+000	0.00000e+000	0.00000e+000	         pmc
 [13C](-4)	0.00000e+000	0.00000e+000	0.00000e+000	      permil

         O	5.54061e+001	5.54061e+001
     [18O]	1.11100e-001	1.11100e-001	0.00000e+000	      permil

-----------------------------Solution composition------------------------------

	Elements           Molality       Moles

	C                1.074e-005  1.074e-005  Equilibrium with CO2(g)
	Cl               1.098e-002  1.098e-002  Charge balance

----------------------------Description of solution----------------------------

                                       pH  =   2.000    
                                       pe  =   4.000    
                        Activity of water  =   1.000
                           Ionic strength  =  1.098e-002
                       Mass of water (kg)  =  1.000e+000
                 Total alkalinity (eq/kg)  = -1.098e-002
                       Total CO2 (mol/kg)  =  1.074e-005
                      Temperature (deg C)  =  25.000
                  Electrical balance (eq)  = -1.255e-016
 Percent error, 100*(Cat-|An|)/(Cat+|An|)  =  -0.00
                               Iterations  =   6
                                  Total H  = 1.110281e+002
                                  Total O  = 5.540612e+001

----------------------------Distribution of species----------------------------

                                                   Log       Log         Log 
   Species                 Molality    Activity  Molality  Activity     Gamma

   H3O+                  1.098e-002  1.000e-002    -1.959    -2.000    -0.041
   OH-                   1.116e-012  1.000e-012   -11.952   -12.000    -0.048
   H2O                   5.551e+001  9.996e-001     1.744    -0.000     0.000
C(-4)           2.648e-029
   CH4                   2.648e-029  2.654e-029   -28.577   -28.576     0.001
C(4)            1.074e-005
   CO2                   1.074e-005  1.077e-005    -4.969    -4.968     0.001
   HCO3-                 5.326e-010  4.784e-010    -9.274    -9.320    -0.047
   CO3-2                 3.447e-018  2.243e-018   -17.463   -17.649    -0.187
Cl              1.098e-002
   Cl-                   1.098e-002  9.846e-003    -1.959    -2.007    -0.047
H(0)            1.413e-015
   H2                    7.067e-016  7.085e-016   -15.151   -15.150     0.001
O(0)            0.000e+000
   O2                    0.000e+000  0.000e+000   -62.082   -62.081     0.001

------------------------------Saturation indices-------------------------------

	Phase               SI log IAP  log KT

	CH4(g)          -25.72  -28.58   -2.86  CH4
	CO2(g)           -3.50   -4.97   -1.47  CO2
	H2(g)           -12.00  -15.15   -3.15  H2
	H2O(g)           -1.51   -0.00    1.51  H2O
	O2(g)           -59.12  -62.08   -2.96  O2

------------------
End of simulation.
------------------

------------------------------------
Reading input data for simulation 2.
------------------------------------

	USE solution 1
	REACTION
		NaCl	0
		0
	END
-----------------------------------------
Beginning of batch-reaction calculations.
-----------------------------------------

Reaction step 1.

Using solution 1.	
Using reaction 1.	

Reaction 1.	Irreversible reaction defined in simulation 2.

	 0.000e+000 moles of the following reaction have been added:

	                 Relative
	Reactant            moles

	NaCl                 0.00000

	                 Relative
	Element             moles
	Cl                   0.00000
	Na                   0.00000

--------------------------------Isotope Ratios---------------------------------

            Isotope Ratio	       Ratio	    Input Units

     R(13C) CO2(aq)      	1.11019e-002	        -7.0004  permil    
     R(18O) CO2(aq)      	2.08958e-003	         42.079  permil    
     R(13C) HCO3-        	1.11985e-002	         1.6385  permil    
     R(D) HCO3-          	1.55758e-004	      -0.012363  permil    
     R(18O) HCO3-        	2.08956e-003	         42.071  permil    
     R(13C) CO3-2        	1.11824e-002	        0.20106  permil    
     R(18O) CO3-2        	2.08958e-003	         42.079  permil    
     R(18O) H2O(l)       	2.00519e-003	     -0.0045909  permil    
     R(D) H2O(l)         	1.55758e-004	      -0.012363  permil    
     R(D) OH-            	3.70884e-005	        -761.89  permil    
     R(18O) OH-          	1.93085e-003	        -37.077  permil    
     R(D) H3O+           	1.62248e-004	         41.652  permil    
     R(18O) H3O+         	2.05156e-003	         23.119  permil    
     R(D)                	1.55760e-004	   -1.5321e-011  permil    
     R(18O)              	2.00520e-003	     1.954e-011  permil    
     R(13C)              	1.11019e-002	             -7  permil    
     R(D) H2(aq)         	0.00000e+000	          -1000  permil    
     R(18O) O2(aq)       	2.05156e-003	         23.119  permil    

--------------------------------Isotope Alphas---------------------------------

                                                              1000ln(Alpha)
                                                         ----------------------
     Isotope Ratio                   Solution alpha      Solution        25.0 C

Alpha 18O CO2(aq)/H2O(l)                     1.0421        41.223        41.223
Alpha 18O H3O+/H2O(l)                        1.0231         22.86         22.86
Alpha D H3O+/H2O(l)                          1.0417         40.82         40.82
Alpha 18O OH-/H2O(l)                        0.96293       -37.777       -37.777
Alpha D OH-/H2O(l)                          0.23812         -1435         -1435
Alpha 13C CO3-2/CO2(aq)                      1.0073        7.2261        7.2261
Alpha 18O CO3-2/CO2(aq)                           1   2.3184e-005             0
Alpha 13C HCO3-/CO2(aq)                      1.0087        8.6622        8.6622
Alpha 18O HCO3-/CO2(aq)                     0.99999    -0.0076136             0
Alpha D HCO3-/H2O(l)                              1   1.2081e-009             0
Alpha D H2(aq)/H3O+                               0         -1000             0
Alpha 18O O2(aq)/H3O+                             1  -2.2464e-009             0

-----------------------------Solution composition------------------------------

	Elements           Molality       Moles

	[13C]            1.183e-007  1.179e-007
	[18O]            1.115e-001  1.111e-001
	C                1.066e-005  1.062e-005
	Cl               1.102e-002  1.098e-002
	D                1.735e-002  1.729e-002

----------------------------Description of solution----------------------------

                                       pH  =   2.000      Charge balance
                                       pe  =  16.017      Adjusted to redox equilibrium
                        Activity of water  =   0.997
                           Ionic strength  =  1.102e-002
                       Mass of water (kg)  =  9.968e-001
                 Total alkalinity (eq/kg)  = -1.102e-002
                       Total CO2 (mol/kg)  =  1.066e-005
                      Temperature (deg C)  =  25.000
                  Electrical balance (eq)  = -1.320e-016
 Percent error, 100*(Cat-|An|)/(Cat+|An|)  =  -0.00
                               Iterations  =  13
                                  Total H  = 1.110281e+002
                                  Total O  = 5.540612e+001

----------------------------Distribution of species----------------------------

                                                   Log       Log         Log 
   Species                 Molality    Activity  Molality  Activity     Gamma

   H3O+                  1.099e-002  1.001e-002    -1.959    -2.000    -0.041
   OH-                   1.111e-012  9.954e-013   -11.954   -12.002    -0.048
   H2O                   5.556e+001  9.974e-001     1.745    -0.001     0.000
C(-4)           0.000e+000
   CH4                   0.000e+000  0.000e+000  -124.708  -124.707     0.001
   CH3D                  0.000e+000  0.000e+000  -127.896  -127.895     0.001
   CH2D2                 0.000e+000  0.000e+000  -131.510  -131.509     0.001
   CHD3                  0.000e+000  0.000e+000  -135.476  -135.475     0.001
   CD4                   0.000e+000  0.000e+000  -139.868  -139.867     0.001
C(4)            1.066e-005
   CO2                   1.061e-005  1.064e-005    -4.974    -4.973     0.001
   CO[18O]               4.434e-008  4.446e-008    -7.353    -7.352     0.001
   HCO3-                 5.237e-010  4.703e-010    -9.281    -9.328    -0.047
   C[18O]2               4.633e-011  4.645e-011   -10.334   -10.333     0.001
   HCO2[18O]-            3.256e-012  2.924e-012   -11.487   -11.534    -0.047
   DCO3-                 8.157e-014  7.326e-014   -13.088   -13.135    -0.047
   HCO[18O]2-            2.024e-014  1.818e-014   -13.694   -13.740    -0.047
   DCO2[18O]-            5.071e-016  4.554e-016   -15.295   -15.342    -0.047
   HC[18O]3-             1.258e-016  1.130e-016   -15.900   -15.947    -0.047
   CO3-2                 3.381e-018  2.199e-018   -17.471   -17.658    -0.187
   DCO[18O]2-            3.153e-018  2.831e-018   -17.501   -17.548    -0.047
   CO2[18O]-2            2.120e-020  1.379e-020   -19.674   -19.861    -0.187
   DC[18O]3-             1.960e-020  1.760e-020   -19.708   -19.754    -0.047
   CO[18O]2-2            4.429e-023  2.881e-023   -22.354   -22.540    -0.187
   C[18O]3-2             3.085e-026  2.007e-026   -25.511   -25.698    -0.187
Cl              1.102e-002
   Cl-                   1.102e-002  9.877e-003    -1.958    -2.005    -0.048
D(0)            0.000e+000
   HD                    0.000e+000  0.000e+000   -42.672   -42.670     0.001
   D2                    0.000e+000  0.000e+000   -46.762   -46.761     0.001
D(1)            1.735e-002
   HDO                   1.731e-002  3.107e-004    -1.762    -3.508    -1.746
   HD[18O]               3.470e-005  6.230e-007    -4.460    -6.205    -1.746
   H2DO+                 5.350e-006  4.870e-006    -5.272    -5.312    -0.041
   D2O                   1.348e-006  2.420e-008    -5.870    -7.616    -1.746
   H2D[18O]+             1.098e-008  9.991e-009    -7.960    -8.000    -0.041
   D2[18O]               2.703e-009  4.852e-011    -8.568   -10.314    -1.746
   HD2O+                 8.680e-010  7.902e-010    -9.061    -9.102    -0.041
   HD2[18O]+             1.781e-012  1.621e-012   -11.749   -11.790    -0.041
   DCO3-                 8.157e-014  7.326e-014   -13.088   -13.135    -0.047
   D3O+                  4.694e-014  4.273e-014   -13.328   -13.369    -0.041
   D[13C]O3-             9.135e-016  8.204e-016   -15.039   -15.086    -0.047
   DCO2[18O]-            5.071e-016  4.554e-016   -15.295   -15.342    -0.047
   D3[18O]+              9.631e-017  8.767e-017   -16.016   -16.057    -0.041
   OD-                   4.120e-017  3.692e-017   -16.385   -16.433    -0.048
   D[13C]O2[18O]-        5.679e-018  5.100e-018   -17.246   -17.292    -0.047
   DCO[18O]2-            3.153e-018  2.831e-018   -17.501   -17.548    -0.047
   [18O]D-               7.956e-020  7.128e-020   -19.099   -19.147    -0.048
   D[13C]O[18O]2-        3.531e-020  3.171e-020   -19.452   -19.499    -0.047
   DC[18O]3-             1.960e-020  1.760e-020   -19.708   -19.754    -0.047
   D[13C][18O]3-         2.195e-022  1.971e-022   -21.659   -21.705    -0.047
   CH3D                  0.000e+000  0.000e+000  -127.896  -127.895     0.001
   [13C]H3D              0.000e+000  0.000e+000  -129.848  -129.847     0.001
   CH2D2                 0.000e+000  0.000e+000  -131.510  -131.509     0.001
   [13C]H2D2             0.000e+000  0.000e+000  -133.461  -133.460     0.001
   CHD3                  0.000e+000  0.000e+000  -135.476  -135.475     0.001
   [13C]HD3              0.000e+000  0.000e+000  -137.427  -137.426     0.001
   CD4                   0.000e+000  0.000e+000  -139.868  -139.867     0.001
   [13C]D4               0.000e+000  0.000e+000  -141.819  -141.818     0.001
H(0)            1.313e-039
   H2                    6.565e-040  6.581e-040   -39.183   -39.182     0.001
   HD                    0.000e+000  0.000e+000   -42.672   -42.670     0.001
O(0)            1.918e-014
   O2                    9.551e-015  9.575e-015   -14.020   -14.019     0.001
   O[18O]                3.919e-017  3.929e-017   -16.407   -16.406     0.001
[13C](-4)       0.000e+000
   [13C]H4               0.000e+000  0.000e+000  -126.660  -126.659     0.001
   [13C]H3D              0.000e+000  0.000e+000  -129.848  -129.847     0.001
   [13C]H2D2             0.000e+000  0.000e+000  -133.461  -133.460     0.001
   [13C]HD3              0.000e+000  0.000e+000  -137.427  -137.426     0.001
   [13C]D4               0.000e+000  0.000e+000  -141.819  -141.818     0.001
[13C](4)        1.183e-007
   [13C]O2               1.178e-007  1.181e-007    -6.929    -6.928     0.001
   [13C]O[18O]           4.923e-010  4.936e-010    -9.308    -9.307     0.001
   H[13C]O3-             5.865e-012  5.267e-012   -11.232   -11.278    -0.047
   [13C][18O]2           5.144e-013  5.157e-013   -12.289   -12.288     0.001
   H[13C]O2[18O]-        3.646e-014  3.274e-014   -13.438   -13.485    -0.047
   D[13C]O3-             9.135e-016  8.204e-016   -15.039   -15.086    -0.047
   H[13C]O[18O]2-        2.267e-016  2.036e-016   -15.645   -15.691    -0.047
   D[13C]O2[18O]-        5.679e-018  5.100e-018   -17.246   -17.292    -0.047
   H[13C][18O]3-         1.409e-018  1.265e-018   -17.851   -17.898    -0.047
   [13C]O3-2             3.781e-020  2.459e-020   -19.422   -19.609    -0.187
   D[13C]O[18O]2-        3.531e-020  3.171e-020   -19.452   -19.499    -0.047
   [13C]O2[18O]-2        2.370e-022  1.542e-022   -21.625   -21.812    -0.187
   D[13C][18O]3-         2.195e-022  1.971e-022   -21.659   -21.705    -0.047
   [13C]O[18O]2-2        4.953e-025  3.222e-025   -24.305   -24.492    -0.187
   [13C][18O]3-2         3.450e-028  2.244e-028   -27.462   -27.649    -0.187
[18O](-2)       1.115e-001
   H2[18O]               1.114e-001  2.000e-003    -0.953    -2.699    -1.746
   HD[18O]               3.470e-005  6.230e-007    -4.460    -6.205    -1.746
   H3[18O]+              2.255e-005  2.053e-005    -4.647    -4.688    -0.041
   CO[18O]               4.434e-008  4.446e-008    -7.353    -7.352     0.001
   H2D[18O]+             1.098e-008  9.991e-009    -7.960    -8.000    -0.041
   D2[18O]               2.703e-009  4.852e-011    -8.568   -10.314    -1.746
   [13C]O[18O]           4.923e-010  4.936e-010    -9.308    -9.307     0.001
   C[18O]2               4.633e-011  4.645e-011   -10.334   -10.333     0.001
   HCO2[18O]-            3.256e-012  2.924e-012   -11.487   -11.534    -0.047
   HD2[18O]+             1.781e-012  1.621e-012   -11.749   -11.790    -0.041
   [13C][18O]2           5.144e-013  5.157e-013   -12.289   -12.288     0.001
   H[13C]O2[18O]-        3.646e-014  3.274e-014   -13.438   -13.485    -0.047
   HCO[18O]2-            2.024e-014  1.818e-014   -13.694   -13.740    -0.047
   [18O]H-               2.145e-015  1.922e-015   -14.669   -14.716    -0.048
   DCO2[18O]-            5.071e-016  4.554e-016   -15.295   -15.342    -0.047
   H[13C]O[18O]2-        2.267e-016  2.036e-016   -15.645   -15.691    -0.047
   HC[18O]3-             1.258e-016  1.130e-016   -15.900   -15.947    -0.047
   D3[18O]+              9.631e-017  8.767e-017   -16.016   -16.057    -0.041
   D[13C]O2[18O]-        5.679e-018  5.100e-018   -17.246   -17.292    -0.047
   DCO[18O]2-            3.153e-018  2.831e-018   -17.501   -17.548    -0.047
   H[13C][18O]3-         1.409e-018  1.265e-018   -17.851   -17.898    -0.047
   [18O]D-               7.956e-020  7.128e-020   -19.099   -19.147    -0.048
   D[13C]O[18O]2-        3.531e-020  3.171e-020   -19.452   -19.499    -0.047
   CO2[18O]-2            2.120e-020  1.379e-020   -19.674   -19.861    -0.187
   DC[18O]3-             1.960e-020  1.760e-020   -19.708   -19.754    -0.047
   [13C]O2[18O]-2        2.370e-022  1.542e-022   -21.625   -21.812    -0.187
   D[13C][18O]3-         2.195e-022  1.971e-022   -21.659   -21.705    -0.047
   CO[18O]2-2            4.429e-023  2.881e-023   -22.354   -22.540    -0.187
   [13C]O[18O]2-2        4.953e-025  3.222e-025   -24.305   -24.492    -0.187
   C[18O]3-2             3.085e-026  2.007e-026   -25.511   -25.698    -0.187
   [13C][18O]3-2         3.450e-028  2.244e-028   -27.462   -27.649    -0.187
[18O](0)        3.927e-017
   O[18O]                3.919e-017  3.929e-017   -16.407   -16.406     0.001
   [18O]2                4.020e-020  4.030e-020   -19.396   -19.395     0.001

------------------------------Saturation indices-------------------------------

	Phase               SI log IAP  log KT

	[13C][18O]2(g)  -10.82  -12.29   -1.47  [13C][18O]2
	[13C]D4(g)     -138.96 -141.82   -2.86  [13C]D4
	[13C]H2D2(g)   -130.60 -133.46   -2.86  [13C]H2D2
	[13C]H3D(g)    -126.99 -129.85   -2.86  [13C]H3D
	[13C]H4(g)     -123.80 -126.66   -2.86  [13C]H4
	[13C]HD3(g)    -134.57 -137.43   -2.86  [13C]HD3
	[13C]O2(g)       -5.46   -6.93   -1.47  [13C]O2
	[13C]O[18O](g)   -7.84   -9.31   -1.47  [13C]O[18O]
	[18O]2(g)       -16.43  -19.39   -2.96  [18O]2
	C[18O]2(g)       -8.87  -10.33   -1.47  C[18O]2
	CD4(g)         -137.01 -139.87   -2.86  CD4
	CH2D2(g)       -128.65 -131.51   -2.86  CH2D2
	CH3D(g)        -125.04 -127.90   -2.86  CH3D
	CH4(g)         -121.85 -124.71   -2.86  CH4
	CHD3(g)        -132.61 -135.47   -2.86  CHD3
	CO2(g)           -3.51   -4.97   -1.47  CO2
	CO[18O](g)       -5.88   -7.35   -1.47  CO[18O]
	D2(g)           -43.61  -46.76   -3.15  D2
	D2[18O](g)      -11.89  -10.31    1.58  D2[18O]
	D2O(g)           -9.19   -7.62    1.58  D2O
	H2(g)           -36.03  -39.18   -3.15  H2
	H2[18O](g)       -4.21   -2.70    1.51  H2[18O]
	H2O(g)           -1.51   -0.00    1.51  H2O
	HD(g)           -39.52  -42.67   -3.15  HD
	HD[18O](g)       -7.75   -6.21    1.55  HD[18O]
	HDO(g)           -5.05   -3.51    1.54  HDO
	O2(g)           -11.06  -14.02   -2.96  O2
	O[18O](g)       -13.45  -16.41   -2.96  O[18O]

------------------
End of simulation.
------------------

------------------------------------
Reading input data for simulation 3.
------------------------------------

	USE solution 1
	GAS_PHASE
		volume	.000001
		fixed_volume
		CO2(g)			0
		CO[18O](g)		0
		C[18O]2(g)		0
		[13C]O2(g)		0
		[13C]O[18O](g)		0
		[13C][18O]2(g)		0
		H2O(g)			0
		HDO(g)			0
		D2O(g)			0
		H2[18O](g)		0
		HD[18O](g)		0
		D2[18O](g)		0
	END
-----------------------------------------
Beginning of batch-reaction calculations.
-----------------------------------------

Reaction step 1.

Using solution 1.	
Using gas phase 1.	

-----------------------------------Gas phase-----------------------------------


Total pressure:   0.0312   atmospheres
    Gas volume:  1.00e-006 liters

                                                        Moles in gas
                                            ----------------------------------
Component                log P           P     Initial       Final       Delta

[13C][18O]2(g)          -10.82  1.513e-011  0.000e+000  6.183e-019  6.183e-019
[13C]O2(g)               -5.46  3.472e-006  0.000e+000  1.419e-013  1.419e-013
[13C]O[18O](g)           -7.84  1.449e-008  0.000e+000  5.924e-016  5.924e-016
C[18O]2(g)               -8.87  1.361e-009  0.000e+000  5.564e-017  5.564e-017
CO2(g)                   -3.51  3.125e-004  0.000e+000  1.277e-011  1.277e-011
CO[18O](g)               -5.88  1.304e-006  0.000e+000  5.331e-014  5.331e-014
D2[18O](g)              -11.89  1.275e-012  0.000e+000  5.212e-020  5.212e-020
D2O(g)                   -9.19  6.419e-010  0.000e+000  2.624e-017  2.624e-017
H2[18O](g)               -4.21  6.123e-005  0.000e+000  2.503e-012  2.503e-012
H2O(g)                   -1.51  3.082e-002  0.000e+000  1.260e-009  1.260e-009
HD[18O](g)               -7.75  1.767e-008  0.000e+000  7.223e-016  7.223e-016
HDO(g)                   -5.05  8.896e-006  0.000e+000  3.636e-013  3.636e-013

--------------------------------Isotope Ratios---------------------------------

            Isotope Ratio	       Ratio	    Input Units

     R(13C) CO2(g)       	1.11113e-002	        -6.1668  permil    
     R(18O) CO2(g)       	2.08734e-003	         40.963  permil    
     R(13C) CO2(aq)      	1.11019e-002	        -7.0004  permil    
     R(18O) CO2(aq)      	2.08958e-003	         42.079  permil    
     R(13C) HCO3-        	1.11985e-002	         1.6385  permil    
     R(D) HCO3-          	1.55758e-004	      -0.012363  permil    
     R(18O) HCO3-        	2.08956e-003	         42.071  permil    
     R(13C) CO3-2        	1.11824e-002	        0.20108  permil    
     R(18O) CO3-2        	2.08958e-003	         42.079  permil    
     R(18O) H2O(l)       	2.00519e-003	     -0.0045909  permil    
     R(D) H2O(l)         	1.55758e-004	      -0.012363  permil    
     R(D) OH-            	3.70884e-005	        -761.89  permil    
     R(18O) OH-          	1.93085e-003	        -37.077  permil    
     R(D) H3O+           	1.62248e-004	         41.652  permil    
     R(18O) H3O+         	2.05156e-003	         23.119  permil    
     R(18O) H2O(g)       	1.98657e-003	        -9.2911  permil    
     R(D) H2O(g)         	1.44308e-004	        -73.525  permil    
     R(D)                	1.55760e-004	     1.656e-009  permil    
     R(18O)              	2.00520e-003	    2.1827e-010  permil    
     R(13C)              	1.11019e-002	             -7  permil    
     R(D) H2(aq)         	0.00000e+000	          -1000  permil    
     R(18O) O2(aq)       	2.05156e-003	         23.119  permil    

--------------------------------Isotope Alphas---------------------------------

                                                              1000ln(Alpha)
                                                         ----------------------
     Isotope Ratio                   Solution alpha      Solution        25.0 C

Alpha 18O CO2(aq)/CO2(g)                     1.0011        1.0715        1.0715
Alpha 13C CO2(aq)/CO2(g)                    0.99916      -0.83913      -0.83913
Alpha 18O CO2(aq)/H2O(l)                     1.0421        41.223        41.223
Alpha D H2O(l)/H2O(g)                        1.0793        76.356        76.356
Alpha 18O H2O(l)/H2O(g)                      1.0094          9.33          9.33
Alpha 18O H3O+/H2O(l)                        1.0231         22.86         22.86
Alpha D H3O+/H2O(l)                          1.0417         40.82         40.82
Alpha 18O OH-/H2O(l)                        0.96293       -37.777       -37.777
Alpha D OH-/H2O(l)                          0.23812         -1435         -1435
Alpha 13C CO3-2/CO2(aq)                      1.0073        7.2261        7.2261
Alpha 18O CO3-2/CO2(aq)                           1   2.6794e-005             0
Alpha 13C HCO3-/CO2(aq)                      1.0087        8.6622        8.6622
Alpha 18O HCO3-/CO2(aq)                     0.99999    -0.0076136             0
Alpha D HCO3-/H2O(l)                              1   1.2061e-009             0
Alpha D H2(aq)/H3O+                               0         -1000             0
Alpha 18O O2(aq)/H3O+                             1  -2.2352e-009             0

-----------------------------Solution composition------------------------------

	Elements           Molality       Moles

	[13C]            1.183e-007  1.179e-007
	[18O]            1.115e-001  1.111e-001
	C                1.066e-005  1.062e-005
	Cl               1.102e-002  1.098e-002
	D                1.735e-002  1.729e-002

----------------------------Description of solution----------------------------

                                       pH  =   2.000      Charge balance
                                       pe  =  16.022      Adjusted to redox equilibrium
                        Activity of water  =   0.997
                           Ionic strength  =  1.102e-002
                       Mass of water (kg)  =  9.968e-001
                 Total alkalinity (eq/kg)  = -1.102e-002
                       Total CO2 (mol/kg)  =  1.066e-005
                      Temperature (deg C)  =  25.000
                  Electrical balance (eq)  = -1.219e-016
 Percent error, 100*(Cat-|An|)/(Cat+|An|)  =  -0.00
                               Iterations  =  13
                                  Total H  = 1.110281e+002
                                  Total O  = 5.540612e+001

----------------------------Distribution of species----------------------------

                                                   Log       Log         Log 
   Species                 Molality    Activity  Molality  Activity     Gamma

   H3O+                  1.099e-002  1.001e-002    -1.959    -2.000    -0.041
   OH-                   1.111e-012  9.954e-013   -11.954   -12.002    -0.048
   H2O                   5.556e+001  9.974e-001     1.745    -0.001     0.000
C(-4)           0.000e+000
   CH4                   0.000e+000  0.000e+000  -124.746  -124.745     0.001
   CH3D                  0.000e+000  0.000e+000  -127.934  -127.933     0.001
   CH2D2                 0.000e+000  0.000e+000  -131.548  -131.547     0.001
   CHD3                  0.000e+000  0.000e+000  -135.514  -135.513     0.001
   CD4                   0.000e+000  0.000e+000  -139.906  -139.905     0.001
C(4)            1.066e-005
   CO2                   1.061e-005  1.064e-005    -4.974    -4.973     0.001
   CO[18O]               4.434e-008  4.446e-008    -7.353    -7.352     0.001
   HCO3-                 5.237e-010  4.703e-010    -9.281    -9.328    -0.047
   C[18O]2               4.633e-011  4.645e-011   -10.334   -10.333     0.001
   HCO2[18O]-            3.256e-012  2.924e-012   -11.487   -11.534    -0.047
   DCO3-                 8.157e-014  7.326e-014   -13.088   -13.135    -0.047
   HCO[18O]2-            2.024e-014  1.818e-014   -13.694   -13.740    -0.047
   DCO2[18O]-            5.071e-016  4.554e-016   -15.295   -15.342    -0.047
   HC[18O]3-             1.258e-016  1.130e-016   -15.900   -15.947    -0.047
   CO3-2                 3.381e-018  2.199e-018   -17.471   -17.658    -0.187
   DCO[18O]2-            3.153e-018  2.831e-018   -17.501   -17.548    -0.047
   CO2[18O]-2            2.120e-020  1.379e-020   -19.674   -19.861    -0.187
   DC[18O]3-             1.960e-020  1.760e-020   -19.708   -19.754    -0.047
   CO[18O]2-2            4.429e-023  2.881e-023   -22.354   -22.540    -0.187
   C[18O]3-2             3.085e-026  2.007e-026   -25.511   -25.698    -0.187
Cl              1.102e-002
   Cl-                   1.102e-002  9.877e-003    -1.958    -2.005    -0.048
D(0)            0.000e+000
   HD                    0.000e+000  0.000e+000   -42.681   -42.680     0.001
   D2                    0.000e+000  0.000e+000   -46.772   -46.771     0.001
D(1)            1.735e-002
   HDO                   1.731e-002  3.107e-004    -1.762    -3.508    -1.746
   HD[18O]               3.470e-005  6.230e-007    -4.460    -6.205    -1.746
   H2DO+                 5.350e-006  4.870e-006    -5.272    -5.312    -0.041
   D2O                   1.348e-006  2.420e-008    -5.870    -7.616    -1.746
   H2D[18O]+             1.098e-008  9.991e-009    -7.960    -8.000    -0.041
   D2[18O]               2.703e-009  4.852e-011    -8.568   -10.314    -1.746
   HD2O+                 8.680e-010  7.902e-010    -9.061    -9.102    -0.041
   HD2[18O]+             1.781e-012  1.621e-012   -11.749   -11.790    -0.041
   DCO3-                 8.157e-014  7.326e-014   -13.088   -13.135    -0.047
   D3O+                  4.694e-014  4.273e-014   -13.328   -13.369    -0.041
   D[13C]O3-             9.135e-016  8.204e-016   -15.039   -15.086    -0.047
   DCO2[18O]-            5.071e-016  4.554e-016   -15.295   -15.342    -0.047
   D3[18O]+              9.631e-017  8.767e-017   -16.016   -16.057    -0.041
   OD-                   4.120e-017  3.692e-017   -16.385   -16.433    -0.048
   D[13C]O2[18O]-        5.679e-018  5.100e-018   -17.246   -17.292    -0.047
   DCO[18O]2-            3.153e-018  2.831e-018   -17.501   -17.548    -0.047
   [18O]D-               7.956e-020  7.128e-020   -19.099   -19.147    -0.048
   D[13C]O[18O]2-        3.531e-020  3.171e-020   -19.452   -19.499    -0.047
   DC[18O]3-             1.960e-020  1.760e-020   -19.708   -19.754    -0.047
   D[13C][18O]3-         2.195e-022  1.971e-022   -21.659   -21.705    -0.047
   CH3D                  0.000e+000  0.000e+000  -127.934  -127.933     0.001
   [13C]H3D              0.000e+000  0.000e+000  -129.886  -129.885     0.001
   CH2D2                 0.000e+000  0.000e+000  -131.548  -131.547     0.001
   [13C]H2D2             0.000e+000  0.000e+000  -133.499  -133.498     0.001
   CHD3                  0.000e+000  0.000e+000  -135.514  -135.513     0.001
   [13C]HD3              0.000e+000  0.000e+000  -137.465  -137.464     0.001
   CD4                   0.000e+000  0.000e+000  -139.906  -139.905     0.001
   [13C]D4               0.000e+000  0.000e+000  -141.857  -141.856     0.001
H(0)            1.285e-039
   H2                    6.423e-040  6.439e-040   -39.192   -39.191     0.001
   HD                    0.000e+000  0.000e+000   -42.681   -42.680     0.001
O(0)            2.004e-014
   O2                    9.977e-015  1.000e-014   -14.001   -14.000     0.001
   O[18O]                4.094e-017  4.104e-017   -16.388   -16.387     0.001
[13C](-4)       0.000e+000
   [13C]H4               0.000e+000  0.000e+000  -126.698  -126.697     0.001
   [13C]H3D              0.000e+000  0.000e+000  -129.886  -129.885     0.001
   [13C]H2D2             0.000e+000  0.000e+000  -133.499  -133.498     0.001
   [13C]HD3              0.000e+000  0.000e+000  -137.465  -137.464     0.001
   [13C]D4               0.000e+000  0.000e+000  -141.857  -141.856     0.001
[13C](4)        1.183e-007
   [13C]O2               1.178e-007  1.181e-007    -6.929    -6.928     0.001
   [13C]O[18O]           4.923e-010  4.936e-010    -9.308    -9.307     0.001
   H[13C]O3-             5.865e-012  5.267e-012   -11.232   -11.278    -0.047
   [13C][18O]2           5.144e-013  5.157e-013   -12.289   -12.288     0.001
   H[13C]O2[18O]-        3.646e-014  3.274e-014   -13.438   -13.485    -0.047
   D[13C]O3-             9.135e-016  8.204e-016   -15.039   -15.086    -0.047
   H[13C]O[18O]2-        2.267e-016  2.036e-016   -15.645   -15.691    -0.047
   D[13C]O2[18O]-        5.679e-018  5.100e-018   -17.246   -17.292    -0.047
   H[13C][18O]3-         1.409e-018  1.265e-018   -17.851   -17.898    -0.047
   [13C]O3-2             3.781e-020  2.459e-020   -19.422   -19.609    -0.187
   D[13C]O[18O]2-        3.531e-020  3.171e-020   -19.452   -19.499    -0.047
   [13C]O2[18O]-2        2.370e-022  1.542e-022   -21.625   -21.812    -0.187
   D[13C][18O]3-         2.195e-022  1.971e-022   -21.659   -21.705    -0.047
   [13C]O[18O]2-2        4.953e-025  3.222e-025   -24.305   -24.492    -0.187
   [13C][18O]3-2         3.450e-028  2.244e-028   -27.462   -27.649    -0.187
[18O](-2)       1.115e-001
   H2[18O]               1.114e-001  2.000e-003    -0.953    -2.699    -1.746
   HD[18O]               3.470e-005  6.230e-007    -4.460    -6.205    -1.746
   H3[18O]+              2.255e-005  2.053e-005    -4.647    -4.688    -0.041
   CO[18O]               4.434e-008  4.446e-008    -7.353    -7.352     0.001
   H2D[18O]+             1.098e-008  9.991e-009    -7.960    -8.000    -0.041
   D2[18O]               2.703e-009  4.852e-011    -8.568   -10.314    -1.746
   [13C]O[18O]           4.923e-010  4.936e-010    -9.308    -9.307     0.001
   C[18O]2               4.633e-011  4.645e-011   -10.334   -10.333     0.001
   HCO2[18O]-            3.256e-012  2.924e-012   -11.487   -11.534    -0.047
   HD2[18O]+             1.781e-012  1.621e-012   -11.749   -11.790    -0.041
   [13C][18O]2           5.144e-013  5.157e-013   -12.289   -12.288     0.001
   H[13C]O2[18O]-        3.646e-014  3.274e-014   -13.438   -13.485    -0.047
   HCO[18O]2-            2.024e-014  1.818e-014   -13.694   -13.740    -0.047
   [18O]H-               2.145e-015  1.922e-015   -14.669   -14.716    -0.048
   DCO2[18O]-            5.071e-016  4.554e-016   -15.295   -15.342    -0.047
   H[13C]O[18O]2-        2.267e-016  2.036e-016   -15.645   -15.691    -0.047
   HC[18O]3-             1.258e-016  1.130e-016   -15.900   -15.947    -0.047
   D3[18O]+              9.631e-017  8.767e-017   -16.016   -16.057    -0.041
   D[13C]O2[18O]-        5.679e-018  5.100e-018   -17.246   -17.292    -0.047
   DCO[18O]2-            3.153e-018  2.831e-018   -17.501   -17.548    -0.047
   H[13C][18O]3-         1.409e-018  1.265e-018   -17.851   -17.898    -0.047
   [18O]D-               7.956e-020  7.128e-020   -19.099   -19.147    -0.048
   D[13C]O[18O]2-        3.531e-020  3.171e-020   -19.452   -19.499    -0.047
   CO2[18O]-2            2.120e-020  1.379e-020   -19.674   -19.861    -0.187
   DC[18O]3-             1.960e-020  1.760e-020   -19.708   -19.754    -0.047
   [13C]O2[18O]-2        2.370e-022  1.542e-022   -21.625   -21.812    -0.187
   D[13C][18O]3-         2.195e-022  1.971e-022   -21.659   -21.705    -0.047
   CO[18O]2-2            4.429e-023  2.881e-023   -22.354   -22.540    -0.187
   [13C]O[18O]2-2        4.953e-025  3.222e-025   -24.305   -24.492    -0.187
   C[18O]3-2             3.085e-026  2.007e-026   -25.511   -25.698    -0.187
   [13C][18O]3-2         3.450e-028  2.244e-028   -27.462   -27.649    -0.187
[18O](0)        4.102e-017
   O[18O]                4.094e-017  4.104e-017   -16.388   -16.387     0.001
   [18O]2                4.199e-020  4.210e-020   -19.377   -19.376     0.001

------------------------------Saturation indices-------------------------------

	Phase               SI log IAP  log KT

	[13C][18O]2(g)  -10.82  -12.29   -1.47  [13C][18O]2
	[13C]D4(g)     -139.00 -141.86   -2.86  [13C]D4
	[13C]H2D2(g)   -130.64 -133.50   -2.86  [13C]H2D2
	[13C]H3D(g)    -127.02 -129.88   -2.86  [13C]H3D
	[13C]H4(g)     -123.84 -126.70   -2.86  [13C]H4
	[13C]HD3(g)    -134.60 -137.46   -2.86  [13C]HD3
	[13C]O2(g)       -5.46   -6.93   -1.47  [13C]O2
	[13C]O[18O](g)   -7.84   -9.31   -1.47  [13C]O[18O]
	[18O]2(g)       -16.42  -19.38   -2.96  [18O]2
	C[18O]2(g)       -8.87  -10.33   -1.47  C[18O]2
	CD4(g)         -137.04 -139.90   -2.86  CD4
	CH2D2(g)       -128.69 -131.55   -2.86  CH2D2
	CH3D(g)        -125.07 -127.93   -2.86  CH3D
	CH4(g)         -121.89 -124.75   -2.86  CH4
	CHD3(g)        -132.65 -135.51   -2.86  CHD3
	CO2(g)           -3.51   -4.97   -1.47  CO2
	CO[18O](g)       -5.88   -7.35   -1.47  CO[18O]
	D2(g)           -43.62  -46.77   -3.15  D2
	D2[18O](g)      -11.89  -10.31    1.58  D2[18O]
	D2O(g)           -9.19   -7.62    1.58  D2O
	H2(g)           -36.04  -39.19   -3.15  H2
	H2[18O](g)       -4.21   -2.70    1.51  H2[18O]
	H2O(g)           -1.51   -0.00    1.51  H2O
	HD(g)           -39.53  -42.68   -3.15  HD
	HD[18O](g)       -7.75   -6.21    1.55  HD[18O]
	HDO(g)           -5.05   -3.51    1.54  HDO
	O2(g)           -11.04  -14.00   -2.96  O2
	O[18O](g)       -13.43  -16.39   -2.96  O[18O]

------------------
End of simulation.
------------------

------------------------------------
Reading input data for simulation 4.
------------------------------------

-----------
End of run.
-----------

