   Input file: colt5
  Output file: colt5.out
Database file: ../database/tony.dat

------------------
Reading data base.
------------------

	SOLUTION_MASTER_SPECIES
	SOLUTION_SPECIES
	PHASES
	EXCHANGE_MASTER_SPECIES
	EXCHANGE_SPECIES
	SURFACE_MASTER_SPECIES
	SURFACE_SPECIES
	END
------------------------------------
Reading input data for simulation 1.
------------------------------------

	DATABASE ../database/tony.dat
	RATES
	Calcite
	   start
	1 rem	parm(1) = A/V, 1/dm	parm(2) = exponent for m/m0
	10 si_cc = si("Calcite")
	20 if (m <= 0  and si_cc < 0) then goto 200
	30  k1 = 10^(0.198 - 444.0 / (273.16 + tc) )
	40  k2 = 10^(2.84 - 2177.0 / (273.16 + tc) )
	50  if tc <= 25 then k3 = 10^(-5.86 - 317.0 / (273.16 + tc) )
	60  if tc > 25 then k3 = 10^(-1.1 - 1737.0 / (273.16 + tc) )
	70   t = 1
	80   if m0 > 0 then t = m/m0
	90   if t = 0 then t = 1
	100   moles = parm(1) * 0.1 * (t)^parm(2)
	110   moles = moles * (k1 * act("H+") + k2 * act("CO2") + k3 * act("H2O"))
	120   moles = moles * (1 - 10^(2/3*si_cc))
	130   moles = moles * time
	140  if (moles > m) then moles = m
	150 if (moles >= 0) then goto 200
	160  temp = tot("Ca")
	170  mc  = tot("C(4)")
	180  if mc < temp then temp = mc
	190  if -moles > temp then moles = -temp
	200save moles
	   end
	Pyrite
	   start
	1 rem	parm(1) = log10(A/V, 1/dm)	parm(2) = exp for (m/m0)
	2 rem	parm(3) = exp for O2		parm(4) = exp for H+
	10 if (m <= 0) then goto 200
	20 if (si("Pyrite") >= 0) then goto 200
	20  rate = -10.19 + parm(1) + parm(3)*lm("O2") + parm(4)*lm("H+") + parm(2)*log10(m/m0)
	30  moles = 10^rate * time
	40 if (moles > m) then moles = m
	50 if (moles >= (mol("O2")/3.5)) then moles = mol("O2")/3.5
	200save moles
	   end
	C
	   start
	10 if (m <= 0) then goto 200
	20  mO2 = mol("O2")
	30  mNO3 = tot("N(5)")
	40  mSO4 = tot("S(6)")
	50   rate = 7.93e-10*mO2/(2.e-5 + mO2) + 1.59e-11*mNO3/(2.e-5 + mNO3)
	60   rate = rate + 1.e-12*mSO4/(2.e-5 + mSO4)
	70  moles = rate * 6 * m * (m/m0)^2 * time
	80 if (moles > m) then moles = m
	200save moles
	   end
	SOLUTION 1-2  # distilled water, equilibrated with P_CO2 = 10^-2
	        temp 25.0
	        pH  7.0  charge
	        pe  16.09
	        C(4)  3.528e-1
	END
-------------------------------------------
Beginning of initial solution calculations.
-------------------------------------------

Initial solution 1.	

-----------------------------Solution composition------------------------------

	Elements           Molality       Moles

	C(4)             3.528e-004  3.528e-004

----------------------------Description of solution----------------------------

                                       pH  =   4.910      Charge balance
                                       pe  =  16.090    
                        Activity of water  =   1.000
                           Ionic strength  =  1.236e-005
                       Mass of water (kg)  =  1.000e+000
                 Total alkalinity (eq/kg)  = -1.102e-019
                       Total CO2 (mol/kg)  =  3.528e-004
                      Temperature (deg C)  =  25.000
                  Electrical balance (eq)  =  1.102e-019
 Percent error, 100*(Cat-|An|)/(Cat+|An|)  =   0.00
                               Iterations  =  17
                                  Total H  = 1.110125e+002
                                  Total O  = 5.552355e+001

----------------------------Distribution of species----------------------------

                                                   Log       Log         Log 
   Species                 Molality    Activity  Molality  Activity     Gamma

   H+                    1.236e-005  1.230e-005    -4.908    -4.910    -0.002
   OH-                   8.168e-010  8.134e-010    -9.088    -9.090    -0.002
   H2O                   5.551e+001  9.999e-001     1.744    -0.000     0.000
C(4)            3.528e-004
   CO2                   3.404e-004  3.404e-004    -3.468    -3.468     0.000
   HCO3-                 1.235e-005  1.230e-005    -4.908    -4.910    -0.002
   CO3-2                 4.767e-011  4.689e-011   -10.322   -10.329    -0.007
H(0)            0.000e+000
   H2                    0.000e+000  0.000e+000   -45.150   -45.150     0.000
O(0)            1.662e-002
   O2                    8.309e-003  8.309e-003    -2.080    -2.080     0.000

------------------------------Saturation indices-------------------------------

	Phase               SI log IAP  log KT

	CO2(g)           -2.00   -3.47   -1.47  CO2
	H2(g)           -42.00  -45.15   -3.15  H2
	O2(g)             0.88   -2.08   -2.96  O2

------------------
End of simulation.
------------------

------------------------------------
Reading input data for simulation 2.
------------------------------------

	knobs
	PRINT
	SELECTED_OUTPUT
	        file colt5.prn
	        totals Ca C(4) S(6)
		si   calcite pyrite
	KINETICS 1
	Pyrite  
		tol    1e-6
		m0 	5.e-4
		m	5.e-4
		parms -5.0 	0.1 	.5 	-0.11 
	Calcite 
		tol    1e-6
		m0 	3.e-3
		m	3.e-3
		parms	50  	0.6
	C
		tol	1e-6
		m0	5e-3
		m	5e-3
	KINETICS 2
	Pyrite  
		tol    1e-8
		m0 	5.e-4
		m	5.e-4
		parms -6.0 	0.1 	.5 	-0.11 
	Calcite 
		tol    1e-8
		m0 	3.e-3
		m	3.e-3
		parms	50  	0.6
	C
		tol	1e-8
		m0	5e-2
		m	5e-2
		parms  3.17e-10  1.e-11  0.5
	TRANSPORT
	        cells  2
	        shifts 5  0
	        bcond   2  2
	        diffc  1.0e-20
	        timest 3600
		print_frequency 5
	END
WARNING: No cell-lengths were read; length = 1 m assumed.
WARNING: No dispersivities were read; disp = 0 assumed.
------------------------------------
Beginning of transport calculations.
------------------------------------

-------------------------------
Equilibrating initial solutions
-------------------------------

Using solution 1.	

-----------------------------Solution composition------------------------------

	Elements           Molality       Moles

	C                3.528e-004  3.528e-004

----------------------------Description of solution----------------------------

                                       pH  =   4.910      Charge balance
                                       pe  =  16.090      Adjusted to redox equilibrium
                        Activity of water  =   1.000
                           Ionic strength  =  1.236e-005
                       Mass of water (kg)  =  1.000e+000
                 Total alkalinity (eq/kg)  = -1.102e-019
                       Total CO2 (mol/kg)  =  3.528e-004
                      Temperature (deg C)  =  25.000
                  Electrical balance (eq)  =  1.102e-019
 Percent error, 100*(Cat-|An|)/(Cat+|An|)  =   0.00
                               Iterations  =   0
                                  Total H  = 1.110125e+002
                                  Total O  = 5.552355e+001

----------------------------Distribution of species----------------------------

                                                   Log       Log         Log 
   Species                 Molality    Activity  Molality  Activity     Gamma

   H+                    1.236e-005  1.230e-005    -4.908    -4.910    -0.002
   OH-                   8.168e-010  8.134e-010    -9.088    -9.090    -0.002
   H2O                   5.551e+001  9.999e-001     1.744    -0.000     0.000
C(-4)           0.000e+000
   CH4                   0.000e+000  0.000e+000  -147.077  -147.077     0.000
C(4)            3.528e-004
   CO2                   3.404e-004  3.404e-004    -3.468    -3.468     0.000
   HCO3-                 1.235e-005  1.230e-005    -4.908    -4.910    -0.002
   CO3-2                 4.767e-011  4.689e-011   -10.322   -10.329    -0.007
H(0)            0.000e+000
   H2                    0.000e+000  0.000e+000   -45.150   -45.150     0.000
O(0)            1.662e-002
   O2                    8.309e-003  8.309e-003    -2.080    -2.080     0.000

------------------------------Saturation indices-------------------------------

	Phase               SI log IAP  log KT

	CH4(g)         -144.22 -147.08   -2.86  CH4
	CO2(g)           -2.00   -3.47   -1.47  CO2
	H2(g)           -42.00  -45.15   -3.15  H2
	O2(g)             0.88   -2.08   -2.96  O2

Using solution 2.	

-----------------------------Solution composition------------------------------

	Elements           Molality       Moles

	C                3.528e-004  3.528e-004

----------------------------Description of solution----------------------------

                                       pH  =   4.910      Charge balance
                                       pe  =  16.090      Adjusted to redox equilibrium
                        Activity of water  =   1.000
                           Ionic strength  =  1.236e-005
                       Mass of water (kg)  =  1.000e+000
                 Total alkalinity (eq/kg)  = -1.102e-019
                       Total CO2 (mol/kg)  =  3.528e-004
                      Temperature (deg C)  =  25.000
                  Electrical balance (eq)  =  1.102e-019
 Percent error, 100*(Cat-|An|)/(Cat+|An|)  =   0.00
                               Iterations  =   0
                                  Total H  = 1.110125e+002
                                  Total O  = 5.552355e+001

----------------------------Distribution of species----------------------------

                                                   Log       Log         Log 
   Species                 Molality    Activity  Molality  Activity     Gamma

   H+                    1.236e-005  1.230e-005    -4.908    -4.910    -0.002
   OH-                   8.168e-010  8.134e-010    -9.088    -9.090    -0.002
   H2O                   5.551e+001  9.999e-001     1.744    -0.000     0.000
C(-4)           0.000e+000
   CH4                   0.000e+000  0.000e+000  -147.077  -147.077     0.000
C(4)            3.528e-004
   CO2                   3.404e-004  3.404e-004    -3.468    -3.468     0.000
   HCO3-                 1.235e-005  1.230e-005    -4.908    -4.910    -0.002
   CO3-2                 4.767e-011  4.689e-011   -10.322   -10.329    -0.007
H(0)            0.000e+000
   H2                    0.000e+000  0.000e+000   -45.150   -45.150     0.000
O(0)            1.662e-002
   O2                    8.309e-003  8.309e-003    -2.080    -2.080     0.000

------------------------------Saturation indices-------------------------------

	Phase               SI log IAP  log KT

	CH4(g)         -144.22 -147.08   -2.86  CH4
	CO2(g)           -2.00   -3.47   -1.47  CO2
	H2(g)           -42.00  -45.15   -3.15  H2
	O2(g)             0.88   -2.08   -2.96  O2

Transport step   1. Mixrun   1.

WARNING: Negative moles in solution for Fe, -6.838183e-013. Recovering...
WARNING: Negative moles in solution for Fe, -6.837087e-014. Recovering...
Transport step   2. Mixrun   1.

WARNING: Negative moles in solution for Ca, -1.111396e-004. Recovering...
Transport step   3. Mixrun   1.

WARNING: Negative moles in solution for Ca, -9.289080e-005. Recovering...
Transport step   4. Mixrun   1.

WARNING: Negative moles in solution for Ca, -1.033166e-004. Recovering...
WARNING: Negative moles in solution for Ca, -3.426025e-004. Recovering...
Transport step   5. Mixrun   1.

WARNING: Negative moles in solution for Ca, -9.639955e-005. Recovering...
Using mix 1.	 
Using kinetics 1.	

Mixture 1.	 

	 0.000e+000 Solution 0	                                                       
	 3.600e-017 Solution 2	Solution after simulation 2.                           
	 1.000e+000 Solution 1	Solution after simulation 2.                           

Kinetics 1.	

	Time:      18000 seconds
	Time step: 3600 seconds

	Rate name       Delta Moles Total Moles   Reactant        Coefficient

	Pyrite          -1.829e-012  5.000e-004   Pyrite                    1
	Calcite         -7.921e-008  2.630e-003   Calcite                   1
	C               -8.542e-008  5.000e-003   C                         1

-----------------------------Solution composition------------------------------

	Elements           Molality       Moles

	C                7.234e-004  7.234e-004
	Ca               3.701e-004  3.701e-004
	Fe               9.046e-012  9.046e-012
	S                1.809e-011  1.809e-011

----------------------------Description of solution----------------------------

                                       pH  =   8.528      Charge balance
                                       pe  =  12.472      Adjusted to redox equilibrium
                        Activity of water  =   1.000
                           Ionic strength  =  1.100e-003
                       Mass of water (kg)  =  1.000e+000
                 Total alkalinity (eq/kg)  =  7.403e-004
                       Total CO2 (mol/kg)  =  7.234e-004
                      Temperature (deg C)  =  25.000
                  Electrical balance (eq)  = -5.696e-013
 Percent error, 100*(Cat-|An|)/(Cat+|An|)  =  -0.00
                               Iterations  = 245
                                  Total H  = 1.110125e+002
                                  Total O  = 5.552466e+001

----------------------------Distribution of species----------------------------

                                                   Log       Log         Log 
   Species                 Molality    Activity  Molality  Activity     Gamma

   OH-                   3.501e-006  3.372e-006    -5.456    -5.472    -0.016
   H+                    3.075e-009  2.968e-009    -8.512    -8.528    -0.015
   H2O                   5.551e+001  9.998e-001     1.744    -0.000     0.000
C(-4)           0.000e+000
   CH4                   0.000e+000  0.000e+000  -148.957  -148.957     0.000
C(4)            7.234e-004
   HCO3-                 6.982e-004  6.730e-004    -3.156    -3.172    -0.016
   CO3-2                 1.232e-005  1.063e-005    -4.909    -4.973    -0.064
   CaCO3                 5.577e-006  5.578e-006    -5.254    -5.254     0.000
   CO2                   4.491e-006  4.492e-006    -5.348    -5.348     0.000
   CaHCO3+               2.782e-006  2.681e-006    -5.556    -5.572    -0.016
   FeCO3                 5.759e-025  5.761e-025   -24.240   -24.240     0.000
   FeHCO3+               1.578e-025  1.520e-025   -24.802   -24.818    -0.016
Ca              3.701e-004
   Ca+2                  3.618e-004  3.123e-004    -3.442    -3.505    -0.064
   CaCO3                 5.577e-006  5.578e-006    -5.254    -5.254     0.000
   CaHCO3+               2.782e-006  2.681e-006    -5.556    -5.572    -0.016
   CaOH+                 1.812e-008  1.746e-008    -7.742    -7.758    -0.016
   CaSO4                 9.227e-013  9.229e-013   -12.035   -12.035     0.000
Fe(2)           3.597e-024
   Fe+2                  2.614e-024  2.258e-024   -23.583   -23.646    -0.063
   FeCO3                 5.759e-025  5.761e-025   -24.240   -24.240     0.000
   FeOH+                 2.497e-025  2.406e-025   -24.603   -24.619    -0.016
   FeHCO3+               1.578e-025  1.520e-025   -24.802   -24.818    -0.016
   FeSO4                 5.948e-033  5.949e-033   -32.226   -32.226     0.000
   FeHSO4+               1.205e-040  1.161e-040   -39.919   -39.935    -0.016
   Fe(HS)2               0.000e+000  0.000e+000  -322.109  -322.108     0.000
   Fe(HS)3-              0.000e+000  0.000e+000  -473.761  -473.778    -0.016
Fe(3)           9.046e-012
   Fe(OH)3               6.737e-012  6.738e-012   -11.172   -11.171     0.000
   Fe(OH)4-              2.149e-012  2.070e-012   -11.668   -11.684    -0.016
   Fe(OH)2+              1.612e-013  1.553e-013   -12.793   -12.809    -0.016
   FeOH+2                1.616e-018  1.392e-018   -17.792   -17.856    -0.065
   Fe+3                  8.805e-025  6.401e-025   -24.055   -24.194    -0.138
   FeSO4+                1.079e-031  1.040e-031   -30.967   -30.983    -0.016
   Fe2(OH)2+4            9.469e-035  5.216e-035   -34.024   -34.283    -0.259
   FeHSO4+2              9.592e-040  8.264e-040   -39.018   -39.083    -0.065
   Fe(SO4)2-             0.000e+000  0.000e+000   -40.456   -40.472    -0.016
   Fe3(OH)4+5            0.000e+000  0.000e+000   -44.367   -44.772    -0.405
H(0)            0.000e+000
   H2                    0.000e+000  0.000e+000   -45.150   -45.150     0.000
O(0)            1.662e-002
   O2                    8.309e-003  8.311e-003    -2.080    -2.080     0.000
S(-2)           0.000e+000
   HS-                   0.000e+000  0.000e+000  -153.690  -153.706    -0.016
   H2S                   0.000e+000  0.000e+000  -155.240  -155.240     0.000
   S-2                   0.000e+000  0.000e+000  -158.033  -158.097    -0.064
   Fe(HS)2               0.000e+000  0.000e+000  -322.109  -322.108     0.000
   Fe(HS)3-              0.000e+000  0.000e+000  -473.761  -473.778    -0.016
S(6)            1.809e-011
   SO4-2                 1.717e-011  1.481e-011   -10.765   -10.829    -0.064
   CaSO4                 9.227e-013  9.229e-013   -12.035   -12.035     0.000
   HSO4-                 4.437e-018  4.275e-018   -17.353   -17.369    -0.016
   FeSO4+                1.079e-031  1.040e-031   -30.967   -30.983    -0.016
   FeSO4                 5.948e-033  5.949e-033   -32.226   -32.226     0.000
   FeHSO4+2              9.592e-040  8.264e-040   -39.018   -39.083    -0.065
   FeHSO4+               1.205e-040  1.161e-040   -39.919   -39.935    -0.016
   Fe(SO4)2-             0.000e+000  0.000e+000   -40.456   -40.472    -0.016

------------------------------Saturation indices-------------------------------

	Phase               SI log IAP  log KT

	Anhydrite        -9.97  -14.33   -4.36  CaSO4
	Aragonite        -0.14   -8.48   -8.34  CaCO3
	Calcite           0.00   -8.48   -8.48  CaCO3
	CH4(g)         -146.10 -148.96   -2.86  CH4
	CO2(g)           -3.88   -5.35   -1.47  CO2
	Fe(OH)3(a)       -3.50    1.39    4.89  Fe(OH)3
	FeS(ppt)       -164.91 -168.82   -3.92  FeS
	Goethite          2.39    1.39   -1.00  FeOOH
	Gypsum           -9.75  -14.33   -4.58  CaSO4:2H2O
	H2(g)           -42.00  -45.15   -3.15  H2
	H2S(g)         -154.24 -155.24   -1.00  H2S
	Hematite          6.79    2.78   -4.01  Fe2O3
	Mackinawite    -164.18 -168.82   -4.65  FeS
	Melanterite     -32.27  -34.48   -2.21  FeSO4:7H2O
	O2(g)             0.88   -2.08   -2.96  O2
	Pyrite         -270.58 -289.06  -18.48  FeS2
	Siderite        -17.73  -28.62  -10.89  FeCO3
	Sulfur         -118.12 -113.24    4.88  S

WARNING: Negative moles in solution for Ca, -1.401456e-004. Recovering...
Using mix 2.	 
Using kinetics 2.	

Mixture 2.	 

	 3.600e-017 Solution 1	Solution after simulation 2.                           
	 0.000e+000 Solution 3	                                                       
	 1.000e+000 Solution 2	Solution after simulation 2.                           

Kinetics 2.	

	Time:      18000 seconds
	Time step: 3600 seconds

	Rate name       Delta Moles Total Moles   Reactant        Coefficient

	Pyrite          -1.825e-013  5.000e-004   Pyrite                    1
	Calcite         -7.839e-007  2.626e-003   Calcite                   1
	C               -8.542e-007  5.000e-002   C                         1

-----------------------------Solution composition------------------------------

	Elements           Molality       Moles

	C                7.307e-004  7.307e-004
	Ca               3.736e-004  3.736e-004
	Fe               9.041e-013  9.041e-013
	S                1.808e-012  1.808e-012

----------------------------Description of solution----------------------------

                                       pH  =   8.518      Charge balance
                                       pe  =  12.482      Adjusted to redox equilibrium
                        Activity of water  =   1.000
                           Ionic strength  =  1.111e-003
                       Mass of water (kg)  =  1.000e+000
                 Total alkalinity (eq/kg)  =  7.472e-004
                       Total CO2 (mol/kg)  =  7.307e-004
                      Temperature (deg C)  =  25.000
                  Electrical balance (eq)  = -9.281e-015
 Percent error, 100*(Cat-|An|)/(Cat+|An|)  =  -0.00
                               Iterations  = 198
                                  Total H  = 1.110125e+002
                                  Total O  = 5.552467e+001

----------------------------Distribution of species----------------------------

                                                   Log       Log         Log 
   Species                 Molality    Activity  Molality  Activity     Gamma

   OH-                   3.425e-006  3.298e-006    -5.465    -5.482    -0.016
   H+                    3.145e-009  3.035e-009    -8.502    -8.518    -0.015
   H2O                   5.551e+001  9.998e-001     1.744    -0.000     0.000
C(-4)           0.000e+000
   CH4                   0.000e+000  0.000e+000  -148.942  -148.942     0.000
C(4)            7.307e-004
   HCO3-                 7.055e-004  6.799e-004    -3.152    -3.168    -0.016
   CO3-2                 1.218e-005  1.051e-005    -4.914    -4.979    -0.064
   CaCO3                 5.559e-006  5.561e-006    -5.255    -5.255     0.000
   CO2                   4.639e-006  4.640e-006    -5.334    -5.334     0.000
   CaHCO3+               2.835e-006  2.733e-006    -5.547    -5.563    -0.016
   FeCO3                 5.974e-026  5.976e-026   -25.224   -25.224     0.000
   FeHCO3+               1.673e-026  1.612e-026   -25.776   -25.793    -0.016
Ca              3.736e-004
   Ca+2                  3.652e-004  3.150e-004    -3.437    -3.502    -0.064
   CaCO3                 5.559e-006  5.561e-006    -5.255    -5.255     0.000
   CaHCO3+               2.835e-006  2.733e-006    -5.547    -5.563    -0.016
   CaOH+                 1.788e-008  1.723e-008    -7.748    -7.764    -0.016
   CaSO4                 9.293e-014  9.295e-014   -13.032   -13.032     0.000
Fe(2)           3.767e-025
   Fe+2                  2.745e-025  2.371e-025   -24.561   -24.625    -0.064
   FeCO3                 5.974e-026  5.976e-026   -25.224   -25.224     0.000
   FeOH+                 2.564e-026  2.470e-026   -25.591   -25.607    -0.016
   FeHCO3+               1.673e-026  1.612e-026   -25.776   -25.793    -0.016
   FeSO4                 6.233e-035  6.235e-035   -34.205   -34.205     0.000
   FeHSO4+               0.000e+000  0.000e+000   -41.889   -41.905    -0.016
   Fe(HS)2               0.000e+000  0.000e+000  -325.069  -325.069     0.000
   Fe(HS)3-              0.000e+000  0.000e+000  -477.712  -477.729    -0.016
Fe(3)           9.041e-013
   Fe(OH)3               6.765e-013  6.767e-013   -12.170   -12.170     0.000
   Fe(OH)4-              2.111e-013  2.033e-013   -12.676   -12.692    -0.016
   Fe(OH)2+              1.655e-014  1.594e-014   -13.781   -13.797    -0.016
   FeOH+2                1.697e-019  1.461e-019   -18.770   -18.835    -0.065
   Fe+3                  9.462e-026  6.869e-026   -25.024   -25.163    -0.139
   FeSO4+                1.156e-033  1.114e-033   -32.937   -32.953    -0.016
   Fe2(OH)2+4            1.046e-036  5.747e-037   -35.980   -36.241    -0.260
   FeHSO4+2              0.000e+000  0.000e+000   -40.978   -41.043    -0.065
   Fe(SO4)2-             0.000e+000  0.000e+000   -43.427   -43.443    -0.016
   Fe3(OH)4+5            0.000e+000  0.000e+000   -47.312   -47.718    -0.406
H(0)            0.000e+000
   H2                    0.000e+000  0.000e+000   -45.150   -45.150     0.000
O(0)            1.661e-002
   O2                    8.305e-003  8.307e-003    -2.081    -2.081     0.000
S(-2)           0.000e+000
   HS-                   0.000e+000  0.000e+000  -154.681  -154.697    -0.016
   H2S                   0.000e+000  0.000e+000  -156.221  -156.221     0.000
   S-2                   0.000e+000  0.000e+000  -159.033  -159.097    -0.064
   Fe(HS)2               0.000e+000  0.000e+000  -325.069  -325.069     0.000
   Fe(HS)3-              0.000e+000  0.000e+000  -477.712  -477.729    -0.016
S(6)            1.808e-012
   SO4-2                 1.715e-012  1.479e-012   -11.766   -11.830    -0.064
   CaSO4                 9.293e-014  9.295e-014   -13.032   -13.032     0.000
   HSO4-                 4.530e-019  4.363e-019   -18.344   -18.360    -0.016
   FeSO4+                1.156e-033  1.114e-033   -32.937   -32.953    -0.016
   FeSO4                 6.233e-035  6.235e-035   -34.205   -34.205     0.000
   FeHSO4+2              0.000e+000  0.000e+000   -40.978   -41.043    -0.065
   FeHSO4+               0.000e+000  0.000e+000   -41.889   -41.905    -0.016
   Fe(SO4)2-             0.000e+000  0.000e+000   -43.427   -43.443    -0.016

------------------------------Saturation indices-------------------------------

	Phase               SI log IAP  log KT

	Anhydrite       -10.97  -15.33   -4.36  CaSO4
	Aragonite        -0.14   -8.48   -8.34  CaCO3
	Calcite          -0.00   -8.48   -8.48  CaCO3
	CH4(g)         -146.08 -148.94   -2.86  CH4
	CO2(g)           -3.87   -5.33   -1.47  CO2
	Fe(OH)3(a)       -4.50    0.39    4.89  Fe(OH)3
	FeS(ppt)       -166.89 -170.80   -3.92  FeS
	Goethite          1.39    0.39   -1.00  FeOOH
	Gypsum          -10.75  -15.33   -4.58  CaSO4:2H2O
	H2(g)           -42.00  -45.15   -3.15  H2
	H2S(g)         -155.22 -156.22   -1.00  H2S
	Hematite          4.79    0.78   -4.01  Fe2O3
	Mackinawite    -166.16 -170.80   -4.65  FeS
	Melanterite     -34.25  -36.46   -2.21  FeSO4:7H2O
	O2(g)             0.88   -2.08   -2.96  O2
	Pyrite         -273.54 -292.02  -18.48  FeS2
	Siderite        -18.71  -29.60  -10.89  FeCO3
	Sulfur         -119.10 -114.22    4.88  S

------------------
End of simulation.
------------------

------------------------------------
Reading input data for simulation 3.
------------------------------------

-----------
End of run.
-----------

