   Input file: colt4
  Output file: colt4.out
Database file: tony.dat

------------------
Reading data base.
------------------

	SOLUTION_MASTER_SPECIES
	SOLUTION_SPECIES
	PHASES
	EXCHANGE_MASTER_SPECIES
	EXCHANGE_SPECIES
	SURFACE_MASTER_SPECIES
	SURFACE_SPECIES
	END
------------------------------------
Reading input data for simulation 1.
------------------------------------

	DATABASE tony.dat
	SOLUTION 1 Solution with calcite and FeS2
	        temp    20.
	        units   mmol/l
	        pH      7.0
	        pe      -4.483
	        Mg      5.78
	        Cl     11.56    charge
	        S       1.705e-3  
	        Fe      1.279e-2 
	        C(4)    2.372e-1
	        Ca      2.715e-1
	EQUILIBRIUM_PHASES 1
	        Pyrite   0.0	0.05
	        Goethite 3.0	0.02
	        Calcite -0.7	0.015
	SAVE equilibrium_phases 1
	SAVE solution 1
	END
-------------------------------------------
Beginning of initial solution calculations.
-------------------------------------------

Initial solution 1.	Solution with calcite and FeS2

-----------------------------Solution composition------------------------------

	Elements           Molality       Moles

	C(4)             2.373e-004  2.373e-004
	Ca               2.717e-004  2.717e-004
	Cl               1.194e-002  1.194e-002  Charge balance
	Fe               1.280e-005  1.280e-005
	Mg               5.783e-003  5.783e-003
	S                1.706e-006  1.706e-006

----------------------------Description of solution----------------------------

                                       pH  =   7.000    
                                       pe  =  -4.483    
                        Activity of water  =   1.000
                           Ionic strength  =  1.819e-002
                       Mass of water (kg)  =  1.000e+000
                 Total alkalinity (eq/kg)  =  1.987e-004
                       Total CO2 (mol/kg)  =  2.373e-004
                      Temperature (deg C)  =  20.000
                  Electrical balance (eq)  =  2.476e-018
 Percent error, 100*(Cat-|An|)/(Cat+|An|)  =   0.00
                               Iterations  =  10
                                  Total H  = 1.110126e+002
                                  Total O  = 5.550689e+001

----------------------------Distribution of species----------------------------

                                                   Log       Log         Log 
   Species                 Molality    Activity  Molality  Activity     Gamma

   H+                    1.119e-007  1.000e-007    -6.951    -7.000    -0.049
   OH-                   7.775e-008  6.787e-008    -7.109    -7.168    -0.059
   H2O                   5.551e+001  9.997e-001     1.744    -0.000     0.000
C(4)            2.373e-004
   HCO3-                 1.889e-004  1.664e-004    -3.724    -3.779    -0.055
   CO2                   3.994e-005  4.010e-005    -4.399    -4.397     0.002
   MgHCO3+               7.658e-006  6.712e-006    -5.116    -5.173    -0.057
   CaHCO3+               3.617e-007  3.187e-007    -6.442    -6.497    -0.055
   MgCO3                 2.168e-007  2.177e-007    -6.664    -6.662     0.002
   FeHCO3+               1.444e-007  1.266e-007    -6.840    -6.898    -0.057
   CO3-2                 1.163e-007  7.008e-008    -6.934    -7.154    -0.220
   CaCO3                 1.749e-008  1.756e-008    -7.757    -7.755     0.002
   FeCO3                 1.274e-008  1.279e-008    -7.895    -7.893     0.002
Ca              2.717e-004
   Ca+2                  2.713e-004  1.634e-004    -3.567    -3.787    -0.220
   CaHCO3+               3.617e-007  3.187e-007    -6.442    -6.497    -0.055
   CaCO3                 1.749e-008  1.756e-008    -7.757    -7.755     0.002
   CaOH+                 3.093e-010  2.711e-010    -9.510    -9.567    -0.057
   CaSO4                 1.244e-015  1.249e-015   -14.905   -14.903     0.002
Cl              1.194e-002
   Cl-                   1.194e-002  1.043e-002    -1.923    -1.982    -0.059
   FeCl+                 1.249e-007  1.095e-007    -6.903    -6.961    -0.057
   FeCl+2                8.212e-024  4.846e-024   -23.086   -23.315    -0.229
   FeCl2+                3.026e-025  2.652e-025   -24.519   -24.576    -0.057
   FeCl3                 2.754e-028  2.765e-028   -27.560   -27.558     0.002
Fe(2)           1.280e-005
   Fe+2                  1.249e-005  7.608e-006    -4.903    -5.119    -0.215
   FeHCO3+               1.444e-007  1.266e-007    -6.840    -6.898    -0.057
   FeCl+                 1.249e-007  1.095e-007    -6.903    -6.961    -0.057
   FeOH+                 1.877e-008  1.645e-008    -7.727    -7.784    -0.057
   FeCO3                 1.274e-008  1.279e-008    -7.895    -7.893     0.002
   Fe(HS)2               3.716e-009  3.732e-009    -8.430    -8.428     0.002
   Fe(HS)3-              3.440e-013  3.015e-013   -12.463   -12.521    -0.057
   FeSO4                 4.932e-017  4.952e-017   -16.307   -16.305     0.002
   FeHSO4+               3.663e-023  3.211e-023   -22.436   -22.493    -0.057
Fe(3)           5.143e-015
   Fe(OH)2+              2.694e-015  2.362e-015   -14.570   -14.627    -0.057
   Fe(OH)3               2.427e-015  2.437e-015   -14.615   -14.613     0.002
   Fe(OH)4-              2.066e-017  1.811e-017   -16.685   -16.742    -0.057
   FeOH+2                1.466e-018  8.652e-019   -17.834   -18.063    -0.229
   Fe+3                  4.965e-023  1.808e-023   -22.304   -22.743    -0.439
   FeCl+2                8.212e-024  4.846e-024   -23.086   -23.315    -0.229
   FeCl2+                3.026e-025  2.652e-025   -24.519   -24.576    -0.057
   FeCl3                 2.754e-028  2.765e-028   -27.560   -27.558     0.002
   FeSO4+                8.120e-033  7.117e-033   -32.090   -32.148    -0.057
   Fe2(OH)2+4            2.050e-034  2.486e-035   -33.688   -34.605    -0.916
   FeHSO4+2              3.248e-039  1.917e-039   -38.488   -38.717    -0.229
   Fe(SO4)2-             0.000e+000  0.000e+000   -44.155   -44.212    -0.057
   Fe3(OH)4+5            0.000e+000  0.000e+000   -45.276   -46.708    -1.432
H(0)            1.320e-008
   H2                    6.598e-009  6.626e-009    -8.181    -8.179     0.002
Mg              5.783e-003
   Mg+2                  5.775e-003  3.516e-003    -2.238    -2.454    -0.216
   MgHCO3+               7.658e-006  6.712e-006    -5.116    -5.173    -0.057
   MgCO3                 2.168e-007  2.177e-007    -6.664    -6.662     0.002
   MgOH+                 9.198e-008  8.062e-008    -7.036    -7.094    -0.057
   MgSO4                 2.892e-014  2.904e-014   -13.539   -13.537     0.002
O(0)            0.000e+000
   O2                    0.000e+000  0.000e+000   -77.699   -77.697     0.002
S(-2)           1.706e-006
   HS-                   8.498e-007  7.419e-007    -6.071    -6.130    -0.059
   H2S                   8.487e-007  8.523e-007    -6.071    -6.069     0.002
   Fe(HS)2               3.716e-009  3.732e-009    -8.430    -8.428     0.002
   S-2                   1.057e-012  6.325e-013   -11.976   -12.199    -0.223
   Fe(HS)3-              3.440e-013  3.015e-013   -12.463   -12.521    -0.057
S(6)            9.749e-014
   SO4-2                 6.727e-014  4.017e-014   -13.172   -13.396    -0.224
   MgSO4                 2.892e-014  2.904e-014   -13.539   -13.537     0.002
   CaSO4                 1.244e-015  1.249e-015   -14.905   -14.903     0.002
   FeSO4                 4.932e-017  4.952e-017   -16.307   -16.305     0.002
   HSO4-                 4.005e-019  3.510e-019   -18.397   -18.455    -0.057
   FeHSO4+               3.663e-023  3.211e-023   -22.436   -22.493    -0.057
   FeSO4+                8.120e-033  7.117e-033   -32.090   -32.148    -0.057
   FeHSO4+2              3.248e-039  1.917e-039   -38.488   -38.717    -0.229
   Fe(SO4)2-             0.000e+000  0.000e+000   -44.155   -44.212    -0.057

------------------------------Saturation indices-------------------------------

	Phase               SI log IAP  log KT

	Anhydrite       -12.84  -17.18   -4.34  CaSO4
	Aragonite        -2.64  -10.94   -8.31  CaCO3
	Calcite          -2.49  -10.94   -8.45  CaCO3
	CO2(g)           -2.99   -4.40   -1.41  CO2
	Dolomite         -3.58  -20.55  -16.97  CaMg(CO3)2
	Fe(OH)3(a)       -6.63   -1.74    4.89  Fe(OH)3
	FeS(ppt)         -0.33   -4.25   -3.92  FeS
	Goethite         -0.74   -1.74   -1.00  FeOOH
	Gypsum          -12.60  -17.18   -4.58  CaSO4:2H2O
	H2(g)            -5.05   -8.18   -3.13  H2
	H2S(g)           -5.13   -6.07   -0.94  H2S
	Hematite          0.14   -3.49   -3.62  Fe2O3
	Mackinawite       0.40   -4.25   -4.65  FeS
	Melanterite     -16.24  -18.52   -2.27  FeSO4:7H2O
	O2(g)           -74.76  -77.70   -2.94  O2
	Pyrite            6.28  -12.34  -18.62  FeS2
	Siderite         -1.41  -12.27  -10.86  FeCO3
	Sulfur           -6.04   -1.04    5.00  S

-----------------------------------------
Beginning of batch-reaction calculations.
-----------------------------------------

Reaction step 1.

Using solution 1.	Solution with calcite and FeS2
Using pure phase assemblage 1.	

-------------------------------Phase assemblage--------------------------------

                                                      Moles in assemblage
Phase                  SI log IAP  log KT      Initial       Final       Delta

Calcite             -0.70   -9.15   -8.45   1.500e-002  1.494e-002 -6.334e-005
Goethite             3.00    2.00   -1.00   2.000e-002  2.000e-002  3.787e-008
Pyrite               0.00  -18.62  -18.62   5.000e-002  5.000e-002  8.528e-007

-----------------------------Solution composition------------------------------

	Elements           Molality       Moles

	C                3.007e-004  3.007e-004
	Ca               3.350e-004  3.350e-004
	Cl               1.194e-002  1.194e-002
	Fe               1.191e-005  1.191e-005
	Mg               5.783e-003  5.783e-003
	S                4.590e-010  4.590e-010

----------------------------Description of solution----------------------------

                                       pH  =   8.546      Charge balance
                                       pe  =  -5.303      Adjusted to redox equilibrium
                        Activity of water  =   1.000
                           Ionic strength  =  1.833e-002
                       Mass of water (kg)  =  1.000e+000
                 Total alkalinity (eq/kg)  =  3.236e-004
                       Total CO2 (mol/kg)  =  3.005e-004
                      Temperature (deg C)  =  20.000
                  Electrical balance (eq)  =  3.108e-018
 Percent error, 100*(Cat-|An|)/(Cat+|An|)  =   0.00
                               Iterations  =  13
                                  Total H  = 1.110126e+002
                                  Total O  = 5.550708e+001

----------------------------Distribution of species----------------------------

                                                   Log       Log         Log 
   Species                 Molality    Activity  Molality  Activity     Gamma

   OH-                   2.734e-006  2.385e-006    -5.563    -5.622    -0.059
   H+                    3.184e-009  2.845e-009    -8.497    -8.546    -0.049
   H2O                   5.551e+001  9.997e-001     1.744    -0.000     0.000
C(-4)           2.198e-007
   CH4                   2.198e-007  2.208e-007    -6.658    -6.656     0.002
C(4)            3.005e-004
   HCO3-                 2.689e-004  2.369e-004    -3.570    -3.626    -0.055
   MgHCO3+               1.086e-005  9.512e-006    -4.964    -5.022    -0.057
   MgCO3                 1.080e-005  1.084e-005    -4.967    -4.965     0.002
   CO3-2                 5.827e-006  3.506e-006    -5.235    -5.455    -0.221
   CO2                   1.617e-006  1.624e-006    -5.791    -5.789     0.002
   CaCO3                 1.073e-006  1.078e-006    -5.969    -5.968     0.002
   CaHCO3+               6.317e-007  5.563e-007    -6.199    -6.255    -0.055
   FeCO3                 5.365e-007  5.388e-007    -6.270    -6.269     0.002
   FeHCO3+               1.732e-007  1.517e-007    -6.761    -6.819    -0.057
Ca              3.350e-004
   Ca+2                  3.333e-004  2.004e-004    -3.477    -3.698    -0.221
   CaCO3                 1.073e-006  1.078e-006    -5.969    -5.968     0.002
   CaHCO3+               6.317e-007  5.563e-007    -6.199    -6.255    -0.055
   CaOH+                 1.334e-008  1.169e-008    -7.875    -7.932    -0.057
   CaSO4                 5.130e-012  5.152e-012   -11.290   -11.288     0.002
Cl              1.194e-002
   Cl-                   1.194e-002  1.042e-002    -1.923    -1.982    -0.059
   FeCl+                 1.052e-007  9.217e-008    -6.978    -7.035    -0.057
   FeCl+2                1.048e-024  6.176e-025   -23.980   -24.209    -0.230
   FeCl2+                3.856e-026  3.378e-026   -25.414   -25.471    -0.057
   FeCl3                 3.506e-029  3.521e-029   -28.455   -28.453     0.002
Fe(2)           1.191e-005
   Fe+2                  1.054e-005  6.407e-006    -4.977    -5.193    -0.216
   FeOH+                 5.556e-007  4.868e-007    -6.255    -6.313    -0.057
   FeCO3                 5.365e-007  5.388e-007    -6.270    -6.269     0.002
   FeHCO3+               1.732e-007  1.517e-007    -6.761    -6.819    -0.057
   FeCl+                 1.052e-007  9.217e-008    -6.978    -7.035    -0.057
   FeSO4                 1.397e-013  1.403e-013   -12.855   -12.853     0.002
   Fe(HS)2               6.950e-017  6.979e-017   -16.158   -16.156     0.002
   FeHSO4+               2.953e-021  2.587e-021   -20.530   -20.587    -0.057
   Fe(HS)3-              9.591e-025  8.403e-025   -24.018   -24.076    -0.057
Fe(3)           1.787e-011
   Fe(OH)3               1.343e-011  1.348e-011   -10.872   -10.870     0.002
   Fe(OH)4-              4.020e-012  3.522e-012   -11.396   -11.453    -0.057
   Fe(OH)2+              4.244e-013  3.718e-013   -12.372   -12.430    -0.057
   FeOH+2                6.580e-018  3.876e-018   -17.182   -17.412    -0.230
   Fe+3                  6.348e-024  2.305e-024   -23.197   -23.637    -0.440
   FeCl+2                1.048e-024  6.176e-025   -23.980   -24.209    -0.230
   FeCl2+                3.856e-026  3.378e-026   -25.414   -25.471    -0.057
   FeCl3                 3.506e-029  3.521e-029   -28.455   -28.453     0.002
   FeSO4+                3.483e-030  3.051e-030   -29.458   -29.516    -0.057
   Fe2(OH)2+4            4.143e-033  4.990e-034   -32.383   -33.302    -0.919
   FeHSO4+2              3.969e-038  2.338e-038   -37.401   -37.631    -0.230
   Fe(SO4)2-             1.009e-038  8.842e-039   -37.996   -38.053    -0.057
   Fe3(OH)4+5            0.000e+000  0.000e+000   -41.771   -43.208    -1.436
H(0)            4.662e-010
   H2                    2.331e-010  2.341e-010    -9.632    -9.631     0.002
Mg              5.783e-003
   Mg+2                  5.758e-003  3.500e-003    -2.240    -2.456    -0.216
   MgHCO3+               1.086e-005  9.512e-006    -4.964    -5.022    -0.057
   MgCO3                 1.080e-005  1.084e-005    -4.967    -4.965     0.002
   MgOH+                 3.220e-006  2.821e-006    -5.492    -5.550    -0.057
   MgSO4                 9.683e-011  9.724e-011   -10.014   -10.012     0.002
O(0)            0.000e+000
   O2                    0.000e+000  0.000e+000   -74.795   -74.794     0.002
S(-2)           1.303e-010
   HS-                   1.267e-010  1.106e-010    -9.897    -9.956    -0.059
   H2S                   3.599e-012  3.614e-012   -11.444   -11.442     0.002
   S-2                   5.547e-015  3.313e-015   -14.256   -14.480    -0.224
   Fe(HS)2               6.950e-017  6.979e-017   -16.158   -16.156     0.002
   Fe(HS)3-              9.591e-025  8.403e-025   -24.018   -24.076    -0.057
S(6)            3.287e-010
   SO4-2                 2.266e-010  1.351e-010    -9.645    -9.869    -0.225
   MgSO4                 9.683e-011  9.724e-011   -10.014   -10.012     0.002
   CaSO4                 5.130e-012  5.152e-012   -11.290   -11.288     0.002
   FeSO4                 1.397e-013  1.403e-013   -12.855   -12.853     0.002
   HSO4-                 3.834e-017  3.359e-017   -16.416   -16.474    -0.057
   FeHSO4+               2.953e-021  2.587e-021   -20.530   -20.587    -0.057
   FeSO4+                3.483e-030  3.051e-030   -29.458   -29.516    -0.057
   FeHSO4+2              3.969e-038  2.338e-038   -37.401   -37.631    -0.230
   Fe(SO4)2-             1.009e-038  8.842e-039   -37.996   -38.053    -0.057

------------------------------Saturation indices-------------------------------

	Phase               SI log IAP  log KT

	Anhydrite        -9.22  -13.57   -4.34  CaSO4
	Aragonite        -0.85   -9.15   -8.31  CaCO3
	Calcite          -0.70   -9.15   -8.45  CaCO3
	CH4(g)           -3.84   -6.66   -2.82  CH4
	CO2(g)           -4.38   -5.79   -1.41  CO2
	Dolomite         -0.09  -17.06  -16.97  CaMg(CO3)2
	Fe(OH)3(a)       -2.89    2.00    4.89  Fe(OH)3
	FeS(ppt)         -2.69   -6.60   -3.92  FeS
	Goethite          3.00    2.00   -1.00  FeOOH
	Gypsum           -8.99  -13.57   -4.58  CaSO4:2H2O
	H2(g)            -6.50   -9.63   -3.13  H2
	H2S(g)          -10.50  -11.44   -0.94  H2S
	Hematite          7.62    4.00   -3.62  Fe2O3
	Mackinawite      -1.96   -6.60   -4.65  FeS
	Melanterite     -12.79  -15.06   -2.27  FeSO4:7H2O
	O2(g)           -71.86  -74.79   -2.94  O2
	Pyrite            0.00  -18.62  -18.62  FeS2
	Siderite          0.21  -10.65  -10.86  FeCO3
	Sulfur           -9.96   -4.96    5.00  S

------------------
End of simulation.
------------------

------------------------------------
Reading input data for simulation 2.
------------------------------------

	EXCHANGE_MASTER_SPECIES
	        Z      Z
	EXCHANGE_SPECIES
	        Z = Z
	        log_k   0.0
	        SO4-2  +  2H+ +  Z  = H2SO4Z
	        log_k           8.2
	        OH-  +  H+ +  Z  = H2OZ
	        log_k           4.0
	        Cl-  +  H+ +  Z  = HClZ
	        log_k           1.0
	EXCHANGE 1
	  equilibrate with solution 1
	        X    0.1
	        Z    Goethite 0.1
	END
-------------------------------------------------------
Beginning of initial exchange-composition calculations.
-------------------------------------------------------

Exchange 1.	

X               1.000e-001 mol

	                               Equiv-    Equivalent      Log 
	Species             Moles      alents      Fraction     Gamma

	MgX2             4.575e-002  9.149e-002  9.149e-001    -0.216
	CaX2             4.196e-003  8.392e-003  8.392e-002    -0.221
	FeX2             5.791e-005  1.158e-004  1.158e-003    -0.216
Z               2.000e-003 mol	[0.1 (mol Z)/(mol Goethite)]

	                               Equiv-    Equivalent      Log 
	Species             Moles      alents      Fraction     Gamma

	HClZ             1.628e-003  1.628e-003  8.138e-001    -0.000
	H2OZ             3.725e-004  3.725e-004  1.862e-001    -0.000
	H2SO4Z           9.514e-013  9.514e-013  4.757e-010    -0.000

------------------
End of simulation.
------------------

------------------------------------
Reading input data for simulation 3.
------------------------------------

	USE solution 1
	USE exchange 1
	USE equilibrium_phases 1
	REACTION 1              # O2 is added to oxidize pyrite
	        O2  1.0
	        0.02     0.05   0.1 moles
	END
-----------------------------------------
Beginning of batch-reaction calculations.
-----------------------------------------

Reaction step 1.

Using solution 1.	Solution after simulation 1.
Using exchange 1.	Exchange assemblage after simulation 2.
Using pure phase assemblage 1.	Pure-phase assemblage after simulation 1.
Using reaction 1.	

Reaction 1.	Irreversible reaction defined in simulation 3.

	 2.000e-002 moles of the following reaction have been added:

	                 Relative
	Reactant            moles

	O2                   1.00000

	                 Relative
	Element             moles
	O                    2.00000

-------------------------------Phase assemblage--------------------------------

                                                      Moles in assemblage
Phase                  SI log IAP  log KT      Initial       Final       Delta

Calcite             -0.70   -9.15   -8.45   1.494e-002  8.337e-003 -6.600e-003
Goethite             3.00    2.00   -1.00   2.000e-002  1.887e-002 -1.129e-003
Pyrite               0.00  -18.62  -18.62   5.000e-002  4.421e-002 -5.795e-003

-----------------------------Exchange composition------------------------------

X               1.000e-001 mol

	                               Equiv-    Equivalent      Log 
	Species             Moles      alents      Fraction     Gamma

	MgX2             3.681e-002  7.363e-002  7.363e-001    -0.315
	CaX2             8.929e-003  1.786e-002  1.786e-001    -0.325
	FeX2             4.256e-003  8.513e-003  8.513e-002    -0.317
Z               1.887e-003 mol	[0.1 (mol Z)/(mol Goethite)]

	                               Equiv-    Equivalent      Log 
	Species             Moles      alents      Fraction     Gamma

	HClZ             1.019e-003  1.019e-003  5.399e-001    -0.000
	H2SO4Z           8.646e-004  8.646e-004  4.581e-001    -0.000
	H2OZ             3.753e-006  3.753e-006  1.989e-003    -0.000

-----------------------------Solution composition------------------------------

	Elements           Molality       Moles

	C                6.901e-003  6.901e-003
	Ca               2.203e-003  2.203e-003
	Cl               1.255e-002  1.255e-002
	Fe               2.737e-003  2.737e-003
	Mg               1.471e-002  1.471e-002
	S                1.073e-002  1.073e-002

----------------------------Description of solution----------------------------

                                       pH  =   6.743      Charge balance
                                       pe  =  -2.039      Adjusted to redox equilibrium
                        Activity of water  =   0.999
                           Ionic strength  =  5.135e-002
                       Mass of water (kg)  =  1.000e+000
                 Total alkalinity (eq/kg)  =  5.312e-003
                       Total CO2 (mol/kg)  =  6.901e-003
                      Temperature (deg C)  =  20.000
                  Electrical balance (eq)  =  2.602e-017
 Percent error, 100*(Cat-|An|)/(Cat+|An|)  =   0.00
                               Iterations  =  13
                                  Total H  = 1.110134e+002
                                  Total O  = 5.556605e+001

----------------------------Distribution of species----------------------------

                                                   Log       Log         Log 
   Species                 Molality    Activity  Molality  Activity     Gamma

   H+                    2.118e-007  1.809e-007    -6.674    -6.743    -0.069
   OH-                   4.624e-008  3.751e-008    -7.335    -7.426    -0.091
   H2O                   5.551e+001  9.992e-001     1.744    -0.000     0.000
C(-4)           4.526e-016
   CH4                   4.526e-016  4.580e-016   -15.344   -15.339     0.005
C(4)            6.901e-003
   HCO3-                 4.525e-003  3.749e-003    -2.344    -2.426    -0.082
   CO2                   1.616e-003  1.635e-003    -2.792    -2.787     0.005
   FeHCO3+               4.093e-004  3.362e-004    -3.388    -3.473    -0.086
   MgHCO3+               2.823e-004  2.318e-004    -3.549    -3.635    -0.086
   CaHCO3+               4.268e-005  3.536e-005    -4.370    -4.451    -0.082
   FeCO3                 1.856e-005  1.878e-005    -4.731    -4.726     0.005
   MgCO3                 4.109e-006  4.158e-006    -5.386    -5.381     0.005
   CO3-2                 1.853e-006  8.730e-007    -5.732    -6.059    -0.327
   CaCO3                 1.065e-006  1.078e-006    -5.973    -5.968     0.005
Ca              2.203e-003
   Ca+2                  1.703e-003  8.048e-004    -2.769    -3.094    -0.325
   CaSO4                 4.562e-004  4.616e-004    -3.341    -3.336     0.005
   CaHCO3+               4.268e-005  3.536e-005    -4.370    -4.451    -0.082
   CaCO3                 1.065e-006  1.078e-006    -5.973    -5.968     0.005
   CaOH+                 8.985e-010  7.379e-010    -9.046    -9.132    -0.086
Cl              1.255e-002
   Cl-                   1.253e-002  1.018e-002    -1.902    -1.992    -0.090
   FeCl+                 1.535e-005  1.260e-005    -4.814    -4.899    -0.086
   FeCl+2                3.410e-019  1.551e-019   -18.467   -18.809    -0.342
   FeCl2+                1.009e-020  8.288e-021   -19.996   -20.082    -0.086
   FeCl3                 8.341e-024  8.440e-024   -23.079   -23.074     0.005
Fe(2)           2.737e-003
   Fe+2                  1.860e-003  8.966e-004    -2.731    -3.047    -0.317
   FeSO4                 4.329e-004  4.380e-004    -3.364    -3.359     0.005
   FeHCO3+               4.093e-004  3.362e-004    -3.388    -3.473    -0.086
   FeCO3                 1.856e-005  1.878e-005    -4.731    -4.726     0.005
   FeCl+                 1.535e-005  1.260e-005    -4.814    -4.899    -0.086
   FeOH+                 1.305e-006  1.071e-006    -5.885    -5.970    -0.086
   FeHSO4+               6.253e-010  5.135e-010    -9.204    -9.289    -0.086
   Fe(HS)2               8.262e-020  8.361e-020   -19.083   -19.078     0.005
   Fe(HS)3-              3.586e-030  2.945e-030   -29.445   -29.531    -0.086
Fe(3)           4.220e-011
   Fe(OH)2+              2.878e-011  2.364e-011   -10.541   -10.626    -0.086
   Fe(OH)3               1.332e-011  1.348e-011   -10.876   -10.870     0.005
   Fe(OH)4-              6.741e-014  5.536e-014   -13.171   -13.257    -0.086
   FeOH+2                3.445e-014  1.567e-014   -13.463   -13.805    -0.342
   FeSO4+                2.131e-017  1.750e-017   -16.671   -16.757    -0.086
   Fe+3                  2.456e-018  5.925e-019   -17.610   -18.227    -0.618
   Fe(SO4)2-             1.378e-018  1.131e-018   -17.861   -17.946    -0.086
   FeCl+2                3.410e-019  1.551e-019   -18.467   -18.809    -0.342
   FeCl2+                1.009e-020  8.288e-021   -19.996   -20.082    -0.086
   FeHSO4+2              1.874e-023  8.524e-024   -22.727   -23.069    -0.342
   FeCl3                 8.341e-024  8.440e-024   -23.079   -23.074     0.005
   Fe2(OH)2+4            1.905e-025  8.152e-027   -24.720   -26.089    -1.369
   Fe3(OH)4+5            8.851e-033  6.436e-035   -32.053   -34.191    -2.138
H(0)            5.542e-013
   H2                    2.771e-013  2.804e-013   -12.557   -12.552     0.005
Mg              1.471e-002
   Mg+2                  1.113e-002  5.389e-003    -1.954    -2.268    -0.315
   MgSO4                 3.302e-003  3.341e-003    -2.481    -2.476     0.005
   MgHCO3+               2.823e-004  2.318e-004    -3.549    -3.635    -0.086
   MgCO3                 4.109e-006  4.158e-006    -5.386    -5.381     0.005
   MgOH+                 8.317e-008  6.830e-008    -7.080    -7.166    -0.086
O(0)            0.000e+000
   O2                    0.000e+000  0.000e+000   -68.956   -68.951     0.005
S(-2)           1.063e-012
   H2S                   6.642e-013  6.721e-013   -12.178   -12.173     0.005
   HS-                   3.987e-013  3.235e-013   -12.399   -12.490    -0.091
   S-2                   3.290e-019  1.525e-019   -18.483   -18.817    -0.334
   Fe(HS)2               8.262e-020  8.361e-020   -19.083   -19.078     0.005
   Fe(HS)3-              3.586e-030  2.945e-030   -29.445   -29.531    -0.086
S(6)            1.073e-002
   SO4-2                 6.535e-003  3.015e-003    -2.185    -2.521    -0.336
   MgSO4                 3.302e-003  3.341e-003    -2.481    -2.476     0.005
   CaSO4                 4.562e-004  4.616e-004    -3.341    -3.336     0.005
   FeSO4                 4.329e-004  4.380e-004    -3.364    -3.359     0.005
   HSO4-                 5.801e-008  4.764e-008    -7.237    -7.322    -0.086
   FeHSO4+               6.253e-010  5.135e-010    -9.204    -9.289    -0.086
   FeSO4+                2.131e-017  1.750e-017   -16.671   -16.757    -0.086
   Fe(SO4)2-             1.378e-018  1.131e-018   -17.861   -17.946    -0.086
   FeHSO4+2              1.874e-023  8.524e-024   -22.727   -23.069    -0.342

------------------------------Saturation indices-------------------------------

	Phase               SI log IAP  log KT

	Anhydrite        -1.27   -5.62   -4.34  CaSO4
	Aragonite        -0.85   -9.15   -8.31  CaCO3
	Calcite          -0.70   -9.15   -8.45  CaCO3
	CH4(g)          -12.52  -15.34   -2.82  CH4
	CO2(g)           -1.38   -2.79   -1.41  CO2
	Dolomite         -0.51  -17.48  -16.97  CaMg(CO3)2
	Fe(OH)3(a)       -2.89    2.00    4.89  Fe(OH)3
	FeS(ppt)         -4.88   -8.79   -3.92  FeS
	Goethite          3.00    2.00   -1.00  FeOOH
	Gypsum           -1.03   -5.62   -4.58  CaSO4:2H2O
	H2(g)            -9.42  -12.55   -3.13  H2
	H2S(g)          -11.23  -12.17   -0.94  H2S
	Hematite          7.62    4.00   -3.62  Fe2O3
	Mackinawite      -4.15   -8.79   -4.65  FeS
	Melanterite      -3.30   -5.57   -2.27  FeSO4:7H2O
	O2(g)           -66.01  -68.95   -2.94  O2
	Pyrite            0.00  -18.62  -18.62  FeS2
	Siderite          1.75   -9.11  -10.86  FeCO3
	Sulfur           -7.77   -2.77    5.00  S

Reaction step 2.

Using solution 1.	Solution after simulation 1.
Using exchange 1.	Exchange assemblage after simulation 2.
Using pure phase assemblage 1.	Pure-phase assemblage after simulation 1.
Using reaction 1.	

Reaction 1.	Irreversible reaction defined in simulation 3.

	 5.000e-002 moles of the following reaction have been added:

	                 Relative
	Reactant            moles

	O2                   1.00000

	                 Relative
	Element             moles
	O                    2.00000

-------------------------------Phase assemblage--------------------------------

                                                      Moles in assemblage
Phase                  SI log IAP  log KT      Initial       Final       Delta

Calcite             -0.70   -9.15   -8.45   1.494e-002  3.321e-003 -1.162e-002
Goethite             3.00    2.00   -1.00   2.000e-002  1.344e-002 -6.562e-003
Pyrite              -0.00  -18.62  -18.62   5.000e-002  3.525e-002 -1.475e-002

-----------------------------Exchange composition------------------------------

X               1.000e-001 mol

	                               Equiv-    Equivalent      Log 
	Species             Moles      alents      Fraction     Gamma

	MgX2             2.918e-002  5.835e-002  5.835e-001    -0.379
	CaX2             1.102e-002  2.204e-002  2.204e-001    -0.395
	FeX2             9.804e-003  1.961e-002  1.961e-001    -0.385
Z               1.344e-003 mol	[0.1 (mol Z)/(mol Goethite)]

	                               Equiv-    Equivalent      Log 
	Species             Moles      alents      Fraction     Gamma

	H2SO4Z           1.055e-003  1.055e-003  7.854e-001     0.000
	HClZ             2.879e-004  2.879e-004  2.142e-001     0.000
	H2OZ             5.108e-007  5.108e-007  3.801e-004     0.000

-----------------------------Solution composition------------------------------

	Elements           Molality       Moles

	C                1.192e-002  1.192e-002
	Ca               5.127e-003  5.127e-003
	Cl               1.328e-002  1.328e-002
	Fe               1.158e-002  1.158e-002
	Mg               2.235e-002  2.235e-002
	S                2.845e-002  2.845e-002

----------------------------Description of solution----------------------------

                                       pH  =   6.427      Charge balance
                                       pe  =  -1.596      Adjusted to redox equilibrium
                        Activity of water  =   0.999
                           Ionic strength  =  9.276e-002
                       Mass of water (kg)  =  1.000e+000
                 Total alkalinity (eq/kg)  =  7.942e-003
                       Total CO2 (mol/kg)  =  1.192e-002
                      Temperature (deg C)  =  20.000
                  Electrical balance (eq)  =  2.082e-017
 Percent error, 100*(Cat-|An|)/(Cat+|An|)  =   0.00
                               Iterations  =  13
                                  Total H  = 1.110192e+002
                                  Total O  = 5.565120e+001

----------------------------Distribution of species----------------------------

                                                   Log       Log         Log 
   Species                 Molality    Activity  Molality  Activity     Gamma

   H+                    4.513e-007  3.745e-007    -6.346    -6.427    -0.081
   OH-                   2.354e-008  1.811e-008    -7.628    -7.742    -0.114
   H2O                   5.551e+001  9.987e-001     1.744    -0.001     0.000
C(-4)           1.082e-016
   CH4                   1.082e-016  1.106e-016   -15.966   -15.956     0.009
C(4)            1.192e-002
   HCO3-                 5.716e-003  4.541e-003    -2.243    -2.343    -0.100
   CO2                   4.015e-003  4.102e-003    -2.396    -2.387     0.009
   FeHCO3+               1.656e-003  1.304e-003    -2.781    -2.885    -0.104
   MgHCO3+               3.968e-004  3.124e-004    -3.401    -3.505    -0.104
   CaHCO3+               9.217e-005  7.322e-005    -4.035    -4.135    -0.100
   FeCO3                 3.443e-005  3.518e-005    -4.463    -4.454     0.009
   MgCO3                 2.649e-006  2.706e-006    -5.577    -5.568     0.009
   CO3-2                 1.282e-006  5.106e-007    -5.892    -6.292    -0.400
   CaCO3                 1.055e-006  1.078e-006    -5.977    -5.968     0.009
Ca              5.127e-003
   Ca+2                  3.419e-003  1.376e-003    -2.466    -2.861    -0.395
   CaSO4                 1.615e-003  1.650e-003    -2.792    -2.783     0.009
   CaHCO3+               9.217e-005  7.322e-005    -4.035    -4.135    -0.100
   CaCO3                 1.055e-006  1.078e-006    -5.977    -5.968     0.009
   CaOH+                 7.735e-010  6.089e-010    -9.112    -9.215    -0.104
Cl              1.328e-002
   Cl-                   1.323e-002  1.020e-002    -1.879    -1.991    -0.113
   FeCl+                 5.138e-005  4.045e-005    -4.289    -4.393    -0.104
   FeCl+2                3.595e-018  1.381e-018   -17.444   -17.860    -0.415
   FeCl2+                9.395e-020  7.396e-020   -19.027   -19.131    -0.104
   FeCl3                 7.388e-023  7.547e-023   -22.131   -22.122     0.009
Fe(2)           1.158e-002
   Fe+2                  6.968e-003  2.872e-003    -2.157    -2.542    -0.385
   FeSO4                 2.871e-003  2.933e-003    -2.542    -2.533     0.009
   FeHCO3+               1.656e-003  1.304e-003    -2.781    -2.885    -0.104
   FeCl+                 5.138e-005  4.045e-005    -4.289    -4.393    -0.104
   FeCO3                 3.443e-005  3.518e-005    -4.463    -4.454     0.009
   FeOH+                 2.104e-006  1.656e-006    -5.677    -5.781    -0.104
   FeHSO4+               9.043e-009  7.120e-009    -8.044    -8.148    -0.104
   Fe(HS)2               4.557e-020  4.655e-020   -19.341   -19.332     0.009
   Fe(HS)3-              8.683e-031  6.836e-031   -30.061   -30.165    -0.104
Fe(3)           7.556e-011
   Fe(OH)2+              6.216e-011  4.894e-011   -10.206   -10.310    -0.104
   Fe(OH)3               1.319e-011  1.347e-011   -10.880   -10.871     0.009
   FeOH+2                1.749e-013  6.721e-014   -12.757   -13.173    -0.415
   Fe(OH)4-              3.392e-014  2.671e-014   -13.470   -13.573    -0.104
   FeSO4+                4.130e-016  3.252e-016   -15.384   -15.488    -0.104
   Fe(SO4)2-             5.582e-017  4.395e-017   -16.253   -16.357    -0.104
   Fe+3                  2.825e-017  5.266e-018   -16.549   -17.279    -0.730
   FeCl+2                3.595e-018  1.381e-018   -17.444   -17.860    -0.415
   FeCl2+                9.395e-020  7.396e-020   -19.027   -19.131    -0.104
   FeHSO4+2              8.536e-022  3.279e-022   -21.069   -21.484    -0.415
   FeCl3                 7.388e-023  7.547e-023   -22.131   -22.122     0.009
   Fe2(OH)2+4            6.886e-024  1.500e-025   -23.162   -24.824    -1.662
   Fe3(OH)4+5            9.687e-031  2.452e-033   -30.014   -32.610    -2.597
H(0)            3.056e-013
   H2                    1.528e-013  1.561e-013   -12.816   -12.807     0.009
Mg              2.235e-002
   Mg+2                  1.435e-002  5.997e-003    -1.843    -2.222    -0.379
   MgSO4                 7.608e-003  7.772e-003    -2.119    -2.109     0.009
   MgHCO3+               3.968e-004  3.124e-004    -3.401    -3.505    -0.104
   MgCO3                 2.649e-006  2.706e-006    -5.577    -5.568     0.009
   MgOH+                 4.660e-008  3.668e-008    -7.332    -7.436    -0.104
O(0)            0.000e+000
   O2                    0.000e+000  0.000e+000   -68.452   -68.443     0.009
S(-2)           7.433e-013
   H2S                   5.679e-013  5.802e-013   -12.246   -12.236     0.009
   HS-                   1.754e-013  1.349e-013   -12.756   -12.870    -0.114
   S-2                   7.902e-020  3.070e-020   -19.102   -19.513    -0.411
   Fe(HS)2               4.557e-020  4.655e-020   -19.341   -19.332     0.009
   Fe(HS)3-              8.683e-031  6.836e-031   -30.061   -30.165    -0.104
S(6)            2.845e-002
   SO4-2                 1.636e-002  6.302e-003    -1.786    -2.201    -0.414
   MgSO4                 7.608e-003  7.772e-003    -2.119    -2.109     0.009
   FeSO4                 2.871e-003  2.933e-003    -2.542    -2.533     0.009
   CaSO4                 1.615e-003  1.650e-003    -2.792    -2.783     0.009
   HSO4-                 2.619e-007  2.062e-007    -6.582    -6.686    -0.104
   FeHSO4+               9.043e-009  7.120e-009    -8.044    -8.148    -0.104
   FeSO4+                4.130e-016  3.252e-016   -15.384   -15.488    -0.104
   Fe(SO4)2-             5.582e-017  4.395e-017   -16.253   -16.357    -0.104
   FeHSO4+2              8.536e-022  3.279e-022   -21.069   -21.484    -0.415

------------------------------Saturation indices-------------------------------

	Phase               SI log IAP  log KT

	Anhydrite        -0.72   -5.06   -4.34  CaSO4
	Aragonite        -0.85   -9.15   -8.31  CaCO3
	Calcite          -0.70   -9.15   -8.45  CaCO3
	CH4(g)          -13.14  -15.96   -2.82  CH4
	CO2(g)           -0.98   -2.39   -1.41  CO2
	Dolomite         -0.70  -17.67  -16.97  CaMg(CO3)2
	Fe(OH)3(a)       -2.89    2.00    4.89  Fe(OH)3
	FeS(ppt)         -5.07   -8.99   -3.92  FeS
	Goethite          3.00    2.00   -1.00  FeOOH
	Gypsum           -0.48   -5.06   -4.58  CaSO4:2H2O
	H2(g)            -9.68  -12.81   -3.13  H2
	H2S(g)          -11.30  -12.24   -0.94  H2S
	Hematite          7.62    4.00   -3.62  Fe2O3
	Mackinawite      -4.34   -8.99   -4.65  FeS
	Melanterite      -2.47   -4.75   -2.27  FeSO4:7H2O
	O2(g)           -65.51  -68.44   -2.94  O2
	Pyrite           -0.00  -18.62  -18.62  FeS2
	Siderite          2.03   -8.83  -10.86  FeCO3
	Sulfur           -7.58   -2.57    5.00  S

Reaction step 3.

Using solution 1.	Solution after simulation 1.
Using exchange 1.	Exchange assemblage after simulation 2.
Using pure phase assemblage 1.	Pure-phase assemblage after simulation 1.
Using reaction 1.	

Reaction 1.	Irreversible reaction defined in simulation 3.

	 1.000e-001 moles of the following reaction have been added:

	                 Relative
	Reactant            moles

	O2                   1.00000

	                 Relative
	Element             moles
	O                    2.00000

-------------------------------Phase assemblage--------------------------------

                                                      Moles in assemblage
Phase                  SI log IAP  log KT      Initial       Final       Delta

Calcite             -1.00   -9.45   -8.45   1.494e-002           0 -1.494e-002
Goethite             2.83    1.83   -1.00   2.000e-002           0 -2.000e-002
Pyrite              -0.00  -18.62  -18.62   5.000e-002  2.000e-002 -3.000e-002

-----------------------------Exchange composition------------------------------

X               1.000e-001 mol

	                               Equiv-    Equivalent      Log 
	Species             Moles      alents      Fraction     Gamma

	MgX2             2.201e-002  4.402e-002  4.402e-001    -0.436
	FeX2             1.718e-002  3.436e-002  3.436e-001    -0.450
	CaX2             1.081e-002  2.162e-002  2.162e-001    -0.460
Z               0.000e+000 mol	[0.1 (mol Z)/(mol Goethite)]

	                               Equiv-    Equivalent      Log 
	Species             Moles      alents      Fraction     Gamma


-----------------------------Solution composition------------------------------

	Elements           Molality       Moles

	C                1.524e-002  1.524e-002
	Ca               8.656e-003  8.657e-003
	Cl               1.356e-002  1.356e-002
	Fe               3.288e-002  3.289e-002
	Mg               2.952e-002  2.952e-002
	S                5.999e-002  6.000e-002

----------------------------Description of solution----------------------------

                                       pH  =   6.109      Charge balance
                                       pe  =  -1.175      Adjusted to redox equilibrium
                        Activity of water  =   0.998
                           Ionic strength  =  1.572e-001
                       Mass of water (kg)  =  1.000e+000
                 Total alkalinity (eq/kg)  =  8.569e-003
                       Total CO2 (mol/kg)  =  1.524e-002
                      Temperature (deg C)  =  20.000
                  Electrical balance (eq)  = -1.572e-010
 Percent error, 100*(Cat-|An|)/(Cat+|An|)  =  -0.00
                               Iterations  =  17
                                  Total H  = 1.110350e+002
                                  Total O  = 5.579226e+001

----------------------------Distribution of species----------------------------

                                                   Log       Log         Log 
   Species                 Molality    Activity  Molality  Activity     Gamma

   H+                    9.620e-007  7.777e-007    -6.017    -6.109    -0.092
   OH-                   1.196e-008  8.711e-009    -7.922    -8.060    -0.138
   H2O                   5.551e+001  9.978e-001     1.744    -0.001     0.000
C(-4)           2.682e-017
   CH4                   2.682e-017  2.781e-017   -16.571   -16.556     0.016
C(4)            1.524e-002
   CO2                   6.700e-003  6.947e-003    -2.174    -2.158     0.016
   HCO3-                 4.852e-003  3.700e-003    -2.314    -2.432    -0.118
   FeHCO3+               3.213e-003  2.439e-003    -2.493    -2.613    -0.120
   MgHCO3+               3.377e-004  2.564e-004    -3.472    -3.591    -0.120
   CaHCO3+               1.007e-004  7.682e-005    -3.997    -4.115    -0.118
   FeCO3                 3.056e-005  3.169e-005    -4.515    -4.499     0.016
   MgCO3                 1.031e-006  1.069e-006    -5.987    -5.971     0.016
   CO3-2                 5.925e-007  2.003e-007    -6.227    -6.698    -0.471
   CaCO3                 5.251e-007  5.444e-007    -6.280    -6.264     0.016
Ca              8.656e-003
   Ca+2                  5.107e-003  1.772e-003    -2.292    -2.752    -0.460
   CaSO4                 3.447e-003  3.574e-003    -2.463    -2.447     0.016
   CaHCO3+               1.007e-004  7.682e-005    -3.997    -4.115    -0.118
   CaCO3                 5.251e-007  5.444e-007    -6.280    -6.264     0.016
   CaOH+                 4.969e-010  3.773e-010    -9.304    -9.423    -0.120
Cl              1.356e-002
   Cl-                   1.344e-002  9.845e-003    -1.871    -2.007    -0.135
   FeCl+                 1.180e-004  8.961e-005    -3.928    -4.048    -0.120
   FeCl+2                2.427e-017  8.065e-018   -16.615   -17.093    -0.478
   FeCl2+                5.488e-019  4.167e-019   -18.261   -18.380    -0.120
   FeCl3                 3.957e-022  4.103e-022   -21.403   -21.387     0.016
Fe(2)           3.288e-002
   Fe+2                  1.860e-002  6.594e-003    -1.731    -2.181    -0.450
   FeSO4                 1.093e-002  1.133e-002    -1.962    -1.946     0.016
   FeHCO3+               3.213e-003  2.439e-003    -2.493    -2.613    -0.120
   FeCl+                 1.180e-004  8.961e-005    -3.928    -4.048    -0.120
   FeCO3                 3.056e-005  3.169e-005    -4.515    -4.499     0.016
   FeOH+                 2.409e-006  1.830e-006    -5.618    -5.738    -0.120
   FeHSO4+               7.522e-008  5.711e-008    -7.124    -7.243    -0.120
   Fe(HS)2               2.786e-020  2.889e-020   -19.555   -19.539     0.016
   Fe(HS)3-              2.905e-031  2.205e-031   -30.537   -30.657    -0.120
Fe(3)           9.967e-011
   Fe(OH)2+              9.030e-011  6.857e-011   -10.044   -10.164    -0.120
   Fe(OH)3               8.757e-012  9.080e-012   -11.058   -11.042     0.016
   FeOH+2                5.889e-013  1.957e-013   -12.230   -12.708    -0.478
   Fe(OH)4-              1.141e-014  8.661e-015   -13.943   -14.062    -0.120
   FeSO4+                4.361e-015  3.311e-015   -14.360   -14.480    -0.120
   Fe(SO4)2-             9.916e-016  7.529e-016   -15.004   -15.123    -0.120
   Fe+3                  2.160e-016  3.187e-017   -15.665   -16.497    -0.831
   FeCl+2                2.427e-017  8.065e-018   -16.615   -17.093    -0.478
   FeCl2+                5.488e-019  4.167e-019   -18.261   -18.380    -0.120
   FeHSO4+2              2.086e-020  6.935e-021   -19.681   -20.159    -0.478
   FeCl3                 3.957e-022  4.103e-022   -21.403   -21.387     0.016
   Fe2(OH)2+4            1.042e-022  1.272e-024   -21.982   -23.895    -1.913
   Fe3(OH)4+5            2.846e-029  2.914e-032   -28.546   -31.536    -2.990
H(0)            1.869e-013
   H2                    9.343e-014  9.688e-014   -13.029   -13.014     0.016
Mg              2.952e-002
   Mg+2                  1.648e-002  6.040e-003    -1.783    -2.219    -0.436
   MgSO4                 1.270e-002  1.317e-002    -1.896    -1.880     0.016
   MgHCO3+               3.377e-004  2.564e-004    -3.472    -3.591    -0.120
   MgCO3                 1.031e-006  1.069e-006    -5.987    -5.971     0.016
   MgOH+                 2.341e-008  1.778e-008    -7.631    -7.750    -0.120
O(0)            0.000e+000
   O2                    0.000e+000  0.000e+000   -68.045   -68.029     0.016
S(-2)           7.004e-013
   H2S                   6.041e-013  6.264e-013   -12.219   -12.203     0.016
   HS-                   9.627e-014  7.011e-014   -13.017   -13.154    -0.138
   Fe(HS)2               2.786e-020  2.889e-020   -19.555   -19.539     0.016
   S-2                   2.352e-020  7.686e-021   -19.629   -20.114    -0.486
   Fe(HS)3-              2.905e-031  2.205e-031   -30.537   -30.657    -0.120
S(6)            5.999e-002
   SO4-2                 3.292e-002  1.060e-002    -1.483    -1.975    -0.492
   MgSO4                 1.270e-002  1.317e-002    -1.896    -1.880     0.016
   FeSO4                 1.093e-002  1.133e-002    -1.962    -1.946     0.016
   CaSO4                 3.447e-003  3.574e-003    -2.463    -2.447     0.016
   HSO4-                 9.488e-007  7.204e-007    -6.023    -6.142    -0.120
   FeHSO4+               7.522e-008  5.711e-008    -7.124    -7.243    -0.120
   FeSO4+                4.361e-015  3.311e-015   -14.360   -14.480    -0.120
   Fe(SO4)2-             9.916e-016  7.529e-016   -15.004   -15.123    -0.120
   FeHSO4+2              2.086e-020  6.935e-021   -19.681   -20.159    -0.478

------------------------------Saturation indices-------------------------------

	Phase               SI log IAP  log KT

	Anhydrite        -0.38   -4.73   -4.34  CaSO4
	Aragonite        -1.14   -9.45   -8.31  CaCO3
	Calcite          -1.00   -9.45   -8.45  CaCO3
	CH4(g)          -13.74  -16.56   -2.82  CH4
	CO2(g)           -0.75   -2.16   -1.41  CO2
	Dolomite         -1.39  -18.37  -16.97  CaMg(CO3)2
	Fe(OH)3(a)       -3.06    1.83    4.89  Fe(OH)3
	FeS(ppt)         -5.31   -9.23   -3.92  FeS
	Goethite          2.83    1.83   -1.00  FeOOH
	Gypsum           -0.15   -4.73   -4.58  CaSO4:2H2O
	H2(g)            -9.89  -13.01   -3.13  H2
	H2S(g)          -11.26  -12.20   -0.94  H2S
	Hematite          7.28    3.66   -3.62  Fe2O3
	Mackinawite      -4.58   -9.23   -4.65  FeS
	Melanterite      -1.89   -4.16   -2.27  FeSO4:7H2O
	O2(g)           -65.09  -68.03   -2.94  O2
	Pyrite           -0.00  -18.62  -18.62  FeS2
	Siderite          1.98   -8.88  -10.86  FeCO3
	Sulfur           -7.33   -2.33    5.00  S

------------------
End of simulation.
------------------

------------------------------------
Reading input data for simulation 4.
------------------------------------

-----------
End of run.
-----------

