   Input file: comments
  Output file: comments.out
Database file: ../database/phreeqc.dat

------------------
Reading data base.
------------------

	SOLUTION_MASTER_SPECIES
	SOLUTION_SPECIES
	PHASES
	EXCHANGE_MASTER_SPECIES
	EXCHANGE_SPECIES
	SURFACE_MASTER_SPECIES
	SURFACE_SPECIES
	RATES
	END
------------------------------------
Reading input data for simulation 1.
------------------------------------

	DATABASE ../database/phreeqc.dat
	SOLUTION 1
	pH 4.0
	END
-------------------------------------------
Beginning of initial solution calculations.
-------------------------------------------

Initial solution 1.	

-----------------------------Solution composition------------------------------

	Elements           Molality       Moles

	Pure water     

----------------------------Description of solution----------------------------

                                       pH  =   4.000    
                                       pe  =   4.000    
       Specific Conductance (uS/cm, 25 oC) = 35
                          Density (g/cm3)  =   0.99705
                        Activity of water  =   1.000
                           Ionic strength  =  5.041e-005
                       Mass of water (kg)  =  1.000e+000
                 Total alkalinity (eq/kg)  = -1.008e-004
                    Total carbon (mol/kg)  =  0.000e+000
                       Total CO2 (mol/kg)  =  0.000e+000
                      Temperature (deg C)  =  25.000
                  Electrical balance (eq)  =  1.008e-004
 Percent error, 100*(Cat-|An|)/(Cat+|An|)  = 100.00
                               Iterations  =   3
                                  Total H  = 1.110125e+002
                                  Total O  = 5.550622e+001

----------------------------Distribution of species----------------------------

                                                   Log       Log         Log 
   Species                 Molality    Activity  Molality  Activity     Gamma

   H+                    1.008e-004  1.000e-004    -3.996    -4.000    -0.004
   OH-                   1.009e-010  1.001e-010    -9.996   -10.000    -0.004
   H2O                   5.551e+001  1.000e+000     1.744    -0.000     0.000
H(0)            1.416e-019
   H2                    7.079e-020  7.079e-020   -19.150   -19.150     0.000
O(0)            0.000e+000
   O2                    0.000e+000  0.000e+000   -54.080   -54.080     0.000

------------------------------Saturation indices-------------------------------

	Phase               SI log IAP  log KT

	H2(g)           -16.00  -19.15   -3.15  H2
	H2O(g)           -1.51   -0.00    1.51  H2O
	O2(g)           -51.19  -54.08   -2.89  O2

------------------
End of simulation.
------------------

------------------------------------
Reading input data for simulation 2.
------------------------------------

	SOLUTION 2
	 ph 5.0
	END
-------------------------------------------
Beginning of initial solution calculations.
-------------------------------------------

Initial solution 2.	

-----------------------------Solution composition------------------------------

	Elements           Molality       Moles

	Pure water     

----------------------------Description of solution----------------------------

                                       pH  =   5.000    
                                       pe  =   4.000    
       Specific Conductance (uS/cm, 25 oC) = 3
                          Density (g/cm3)  =   0.99705
                        Activity of water  =   1.000
                           Ionic strength  =  5.014e-006
                       Mass of water (kg)  =  1.000e+000
                 Total alkalinity (eq/kg)  = -1.003e-005
                    Total carbon (mol/kg)  =  0.000e+000
                       Total CO2 (mol/kg)  =  0.000e+000
                      Temperature (deg C)  =  25.000
                  Electrical balance (eq)  =  1.003e-005
 Percent error, 100*(Cat-|An|)/(Cat+|An|)  =  99.98
                               Iterations  =   2
                                  Total H  = 1.110124e+002
                                  Total O  = 5.550622e+001

----------------------------Distribution of species----------------------------

                                                   Log       Log         Log 
   Species                 Molality    Activity  Molality  Activity     Gamma

   H+                    1.003e-005  1.000e-005    -4.999    -5.000    -0.001
   OH-                   1.004e-009  1.001e-009    -8.998    -9.000    -0.001
   H2O                   5.551e+001  1.000e+000     1.744    -0.000     0.000
H(0)            1.416e-021
   H2                    7.079e-022  7.079e-022   -21.150   -21.150     0.000
O(0)            0.000e+000
   O2                    0.000e+000  0.000e+000   -50.080   -50.080     0.000

------------------------------Saturation indices-------------------------------

	Phase               SI log IAP  log KT

	H2(g)           -18.00  -21.15   -3.15  H2
	H2O(g)           -1.51   -0.00    1.51  H2O
	O2(g)           -47.19  -50.08   -2.89  O2

------------------
End of simulation.
------------------

------------------------------------
Reading input data for simulation 3.
------------------------------------

	SOLUTION 3
	 ph     6.0
	END
-------------------------------------------
Beginning of initial solution calculations.
-------------------------------------------

Initial solution 3.	

-----------------------------Solution composition------------------------------

	Elements           Molality       Moles

	Pure water     

----------------------------Description of solution----------------------------

                                       pH  =   6.000    
                                       pe  =   4.000    
       Specific Conductance (uS/cm, 25 oC) = 0
                          Density (g/cm3)  =   0.99705
                        Activity of water  =   1.000
                           Ionic strength  =  5.054e-007
                       Mass of water (kg)  =  1.000e+000
                 Total alkalinity (eq/kg)  = -9.908e-007
                    Total carbon (mol/kg)  =  0.000e+000
                       Total CO2 (mol/kg)  =  0.000e+000
                      Temperature (deg C)  =  25.000
                  Electrical balance (eq)  =  9.908e-007
 Percent error, 100*(Cat-|An|)/(Cat+|An|)  =  98.02
                               Iterations  =   2
                                  Total H  = 1.110124e+002
                                  Total O  = 5.550622e+001

----------------------------Distribution of species----------------------------

                                                   Log       Log         Log 
   Species                 Molality    Activity  Molality  Activity     Gamma

   H+                    1.001e-006  1.000e-006    -6.000    -6.000    -0.000
   OH-                   1.002e-008  1.001e-008    -7.999    -8.000    -0.000
   H2O                   5.551e+001  1.000e+000     1.744    -0.000     0.000
H(0)            1.416e-023
   H2                    7.079e-024  7.079e-024   -23.150   -23.150     0.000
O(0)            0.000e+000
   O2                    0.000e+000  0.000e+000   -46.080   -46.080     0.000

------------------------------Saturation indices-------------------------------

	Phase               SI log IAP  log KT

	H2(g)           -20.00  -23.15   -3.15  H2
	H2O(g)           -1.51   -0.00    1.51  H2O
	O2(g)           -43.19  -46.08   -2.89  O2

------------------
End of simulation.
------------------

------------------------------------
Reading input data for simulation 4.
------------------------------------

	SELECTED_OUTPUT
	 file comments.sel
	END
------------------
End of simulation.
------------------

------------------------------------
Reading input data for simulation 5.
------------------------------------

	SELECTED_OUTPUT
	 file comments1.sel
	END
------------------
End of simulation.
------------------

------------------------------------
Reading input data for simulation 6.
------------------------------------

	SELECTED_OUTPUT
	 file comments2.sel
	END
------------------
End of simulation.
------------------

------------------------------------
Reading input data for simulation 7.
------------------------------------

	SOLUTION 4
	pH 4.1
	END
-------------------------------------------
Beginning of initial solution calculations.
-------------------------------------------

Initial solution 4.	

-----------------------------Solution composition------------------------------

	Elements           Molality       Moles

	Pure water     

----------------------------Description of solution----------------------------

                                       pH  =   4.100    
                                       pe  =   4.000    
       Specific Conductance (uS/cm, 25 oC) = 27
                          Density (g/cm3)  =   0.99705
                        Activity of water  =   1.000
                           Ionic strength  =  4.001e-005
                       Mass of water (kg)  =  1.000e+000
                 Total alkalinity (eq/kg)  = -8.001e-005
                    Total carbon (mol/kg)  =  0.000e+000
                       Total CO2 (mol/kg)  =  0.000e+000
                      Temperature (deg C)  =  25.000
                  Electrical balance (eq)  =  8.001e-005
 Percent error, 100*(Cat-|An|)/(Cat+|An|)  = 100.00
                               Iterations  =   3
                                  Total H  = 1.110125e+002
                                  Total O  = 5.550622e+001

----------------------------Distribution of species----------------------------

                                                   Log       Log         Log 
   Species                 Molality    Activity  Molality  Activity     Gamma

   H+                    8.001e-005  7.943e-005    -4.097    -4.100    -0.003
   OH-                   1.270e-010  1.260e-010    -9.896    -9.900    -0.003
   H2O                   5.551e+001  1.000e+000     1.744    -0.000     0.000
H(0)            8.934e-020
   H2                    4.467e-020  4.467e-020   -19.350   -19.350     0.000
O(0)            0.000e+000
   O2                    0.000e+000  0.000e+000   -53.680   -53.680     0.000

------------------------------Saturation indices-------------------------------

	Phase               SI log IAP  log KT

	H2(g)           -16.20  -19.35   -3.15  H2
	H2O(g)           -1.51   -0.00    1.51  H2O
	O2(g)           -50.79  -53.68   -2.89  O2

------------------
End of simulation.
------------------

------------------------------------
Reading input data for simulation 8.
------------------------------------

	SOLUTION 5
		pH 	6.0
	END
-------------------------------------------
Beginning of initial solution calculations.
-------------------------------------------

Initial solution 5.	

-----------------------------Solution composition------------------------------

	Elements           Molality       Moles

	Pure water     

----------------------------Description of solution----------------------------

                                       pH  =   6.000    
                                       pe  =   4.000    
       Specific Conductance (uS/cm, 25 oC) = 0
                          Density (g/cm3)  =   0.99705
                        Activity of water  =   1.000
                           Ionic strength  =  5.054e-007
                       Mass of water (kg)  =  1.000e+000
                 Total alkalinity (eq/kg)  = -9.908e-007
                    Total carbon (mol/kg)  =  0.000e+000
                       Total CO2 (mol/kg)  =  0.000e+000
                      Temperature (deg C)  =  25.000
                  Electrical balance (eq)  =  9.908e-007
 Percent error, 100*(Cat-|An|)/(Cat+|An|)  =  98.02
                               Iterations  =   2
                                  Total H  = 1.110124e+002
                                  Total O  = 5.550622e+001

----------------------------Distribution of species----------------------------

                                                   Log       Log         Log 
   Species                 Molality    Activity  Molality  Activity     Gamma

   H+                    1.001e-006  1.000e-006    -6.000    -6.000    -0.000
   OH-                   1.002e-008  1.001e-008    -7.999    -8.000    -0.000
   H2O                   5.551e+001  1.000e+000     1.744    -0.000     0.000
H(0)            1.416e-023
   H2                    7.079e-024  7.079e-024   -23.150   -23.150     0.000
O(0)            0.000e+000
   O2                    0.000e+000  0.000e+000   -46.080   -46.080     0.000

------------------------------Saturation indices-------------------------------

	Phase               SI log IAP  log KT

	H2(g)           -20.00  -23.15   -3.15  H2
	H2O(g)           -1.51   -0.00    1.51  H2O
	O2(g)           -43.19  -46.08   -2.89  O2

------------------
End of simulation.
------------------

------------------------------------
Reading input data for simulation 9.
------------------------------------

	SOLUTION 6
	END
-------------------------------------------
Beginning of initial solution calculations.
-------------------------------------------

Initial solution 6.	

-----------------------------Solution composition------------------------------

	Elements           Molality       Moles

	Pure water     

----------------------------Description of solution----------------------------

                                       pH  =   7.000    
                                       pe  =   4.000    
       Specific Conductance (uS/cm, 25 oC) = 0
                          Density (g/cm3)  =   0.99705
                        Activity of water  =   1.000
                           Ionic strength  =  1.001e-007
                       Mass of water (kg)  =  1.000e+000
                 Total alkalinity (eq/kg)  =  1.082e-010
                    Total carbon (mol/kg)  =  0.000e+000
                       Total CO2 (mol/kg)  =  0.000e+000
                      Temperature (deg C)  =  25.000
                  Electrical balance (eq)  = -1.082e-010
 Percent error, 100*(Cat-|An|)/(Cat+|An|)  =  -0.05
                               Iterations  =   0
                                  Total H  = 1.110124e+002
                                  Total O  = 5.550622e+001

----------------------------Distribution of species----------------------------

                                                   Log       Log         Log 
   Species                 Molality    Activity  Molality  Activity     Gamma

   OH-                   1.002e-007  1.001e-007    -6.999    -6.999    -0.000
   H+                    1.001e-007  1.000e-007    -7.000    -7.000    -0.000
   H2O                   5.551e+001  1.000e+000     1.744     0.000     0.000
H(0)            1.416e-025
   H2                    7.079e-026  7.079e-026   -25.150   -25.150     0.000
O(0)            0.000e+000
   O2                    0.000e+000  0.000e+000   -42.080   -42.080     0.000

------------------------------Saturation indices-------------------------------

	Phase               SI log IAP  log KT

	H2(g)           -22.00  -25.15   -3.15  H2
	H2O(g)           -1.51    0.00    1.51  H2O
	O2(g)           -39.19  -42.08   -2.89  O2

------------------
End of simulation.
------------------

-------------------------------------
Reading input data for simulation 10.
-------------------------------------

-----------
End of run.
-----------

