   Input file: ddl_flux
  Output file: ddl_flux.out
Database file: ../database/phreeqc.dat

------------------
Reading data base.
------------------

	SOLUTION_MASTER_SPECIES
	SOLUTION_SPECIES
	PHASES
	EXCHANGE_MASTER_SPECIES
	EXCHANGE_SPECIES
	SURFACE_MASTER_SPECIES
	SURFACE_SPECIES
	RATES
	END
------------------------------------
Reading input data for simulation 1.
------------------------------------

	DATABASE ../database/phreeqc.dat
	SOLUTION_MASTER_SPECIES
	Hto     Hto             0.0     1       1
	Na_tr   Na_tr+          0.0     1       1
	Cl_tr   Cl_tr-          0.0     1       1
	Sr_tr   Sr_tr+2         0.0     1       1
	SOLUTION_SPECIES
	Hto = Hto
	 log_k 0
	 gamma 1e6 0
	 erm_ddl 1#-dw 2.236e-9
	Na_tr+ = Na_tr+
	 log_k 0
	 gamma 1e6 0
	Cl_tr- = Cl_tr-
	 log_k 0
	 gamma 1e6 0
	Sr_tr+2 = Sr_tr+2
	 log_k 0
	 gamma 1e6 0
	SURFACE_MASTER_SPECIES
	 Su Su-
	 Sua Sua+
	SURFACE_SPECIES
	 Su- = Su-
	 log_k 0
	 Sua+ = Sua+
	 log_k 0
	KNOBS
	 iterations 2000
	 diagonal_scale true
	END
------------------
End of simulation.
------------------

------------------------------------
Reading input data for simulation 2.
------------------------------------

	SOLUTION 0
	 water 5.0000e-01
	Na 100
	 Cl 10 charge
	Sr_tr 1e-3
	 Na_tr 1e-3
	 Hto 1e-3
	 Cl_tr 1e-3
	SURFACE 0
	 equilibrate 0
	  Su 0.05e1 1.0000e+00 1
	 donnan 5e-4 v 1
	PHASES
	 A_sr
	 Sr_trCl2 = Sr_tr+2 + 2Cl-
	 log_k -14
	 A_na
	 Na_trCl = Na_tr+ + Cl-
	 log_k -14
	 A_cl
	 NaCl_tr = Na+ + Cl_tr-
	 log_k -14
	 A_hto
	 Hto = Hto
	 log_k -15
	END
-------------------------------------------
Beginning of initial solution calculations.
-------------------------------------------

Initial solution 0.	

-----------------------------Solution composition------------------------------

	Elements           Molality       Moles

	Cl               1.000e-001  5.000e-002  Charge balance
	Cl_tr            1.000e-006  5.000e-007
	Hto              1.000e-006  5.000e-007
	Na               1.000e-001  5.000e-002
	Na_tr            1.000e-006  5.000e-007
	Sr_tr            1.000e-006  5.000e-007

----------------------------Description of solution----------------------------

                                       pH  =   7.000    
                                       pe  =   4.000    
       Specific Conductance (uS/cm, 25 oC) = 10802
                          Density (g/cm3)  =   1.00116
                        Activity of water  =   0.997
                           Ionic strength  =  1.000e-001
                       Mass of water (kg)  =  5.000e-001
                 Total alkalinity (eq/kg)  =  1.486e-008
                    Total carbon (mol/kg)  =  0.000e+000
                       Total CO2 (mol/kg)  =  0.000e+000
                      Temperature (deg C)  =  25.000
                  Electrical balance (eq)  = -1.213e-013
 Percent error, 100*(Cat-|An|)/(Cat+|An|)  =  -0.00
                               Iterations  =   6
                                  Total H  = 5.550622e+001
                                  Total O  = 2.775311e+001

----------------------------Distribution of species----------------------------

                                                   Log       Log         Log 
   Species                 Molality    Activity  Molality  Activity     Gamma

   OH-                   1.310e-007  9.977e-008    -6.883    -7.001    -0.118
   H+                    1.211e-007  1.000e-007    -6.917    -7.000    -0.083
   H2O                   5.551e+001  9.966e-001     1.744    -0.001     0.000
Cl              1.000e-001
   Cl-                   1.000e-001  7.645e-002    -1.000    -1.117    -0.117
Cl_tr           1.000e-006
   Cl_tr-                1.000e-006  1.000e-006    -6.000    -6.000    -0.000
H(0)            1.384e-025
   H2                    6.918e-026  7.079e-026   -25.160   -25.150     0.010
Hto             1.000e-006
   Hto                   1.000e-006  1.000e-006    -6.000    -6.000     0.000
Na              1.000e-001
   Na+                   1.000e-001  7.829e-002    -1.000    -1.106    -0.106
   NaOH                  5.038e-009  5.155e-009    -8.298    -8.288     0.010
Na_tr           1.000e-006
   Na_tr+                1.000e-006  1.000e-006    -6.000    -6.000    -0.000
O(0)            0.000e+000
   O2                    0.000e+000  0.000e+000   -42.093   -42.083     0.010
Sr_tr           1.000e-006
   Sr_tr+2               1.000e-006  1.000e-006    -6.000    -6.000    -0.000

------------------------------Saturation indices-------------------------------

	Phase               SI log IAP  log KT

	A_cl              6.89   -7.11  -14.00  NaCl_tr
	A_hto             9.00   -6.00  -15.00  Hto
	A_na              6.88   -7.12  -14.00  Na_trCl
	A_sr              5.77   -8.23  -14.00  Sr_trCl2
	H2(g)           -22.00  -25.15   -3.15  H2
	H2O(g)           -1.51   -0.00    1.51  H2O
	Halite           -3.80   -2.22    1.58  NaCl
	O2(g)           -39.19  -42.08   -2.89  O2

------------------------------------------------------
Beginning of initial surface-composition calculations.
------------------------------------------------------

Surface 0.	

Su            
	 4.484e-010  Surface + diffuse layer charge, eq
	-5.000e-001  Surface charge, eq
	-4.825e+004  sigma, C/m**2
	-7.589e-001  psi, V
	 2.954e+001  -F*psi/RT
	 6.755e+012  exp(-F*psi/RT)
	 1.000e+000  specific area, m**2/g
	 1.000e+000  m**2 for  1.000e+000 g

	Water in diffuse layer: 5.000e-001 kg, 100.0% of total DDL-water.

	Total moles in diffuse layer (excluding water), Donnan calculation 

	Element       	     Moles
	Cl            	 4.9521e-003
	Cl_tr         	 4.9520e-008
	H             	 6.2053e-007
	Hto           	 5.0000e-007
	Na            	 5.0484e-001
	Na_tr         	 5.0484e-006
	O             	 9.0037e-009
	Sr_tr         	 5.0974e-005

Su            
	 5.000e-001  moles
	                                   Mole                     Log
	Species               Moles    Fraction    Molality    Molality

	Su-              5.000e-001       1.000  1.000e+000       0.000

-----------------------------------------
Beginning of batch-reaction calculations.
-----------------------------------------

Reaction step 1.

Using solution 0.	
Using surface 0.	Surface assemblage after simulation 2.

------------------------------Surface composition------------------------------

Su            
	 1.613e-011  Surface + diffuse layer charge, eq
	-5.000e-001  Surface charge, eq
	-4.825e+004  sigma, C/m**2
	-7.589e-001  psi, V
	 2.954e+001  -F*psi/RT
	 6.755e+012  exp(-F*psi/RT)
	 1.000e+000  specific area, m**2/g
	 1.000e+000  m**2 for  1.000e+000 g

	Water in diffuse layer: 5.000e-001 kg, 100.0% of total DDL-water.

	Total moles in diffuse layer (excluding water), Donnan calculation 

	Element       	     Moles
	Cl            	 4.9521e-003
	Cl_tr         	 4.9520e-008
	H             	 6.2053e-007
	Hto           	 5.0000e-007
	Na            	 5.0484e-001
	Na_tr         	 5.0484e-006
	O             	 9.0037e-009
	Sr_tr         	 5.0974e-005

Su            
	 5.000e-001  moles
	                                   Mole                     Log
	Species               Moles    Fraction    Molality    Molality

	Su-              5.000e-001       1.000  1.000e+000       0.000

-----------------------------Solution composition------------------------------

	Elements           Molality       Moles

	Cl               1.000e-001  5.000e-002
	Cl_tr            1.000e-006  5.000e-007
	Hto              1.000e-006  5.000e-007
	Na               1.000e-001  5.000e-002
	Na_tr            1.000e-006  5.000e-007
	Sr_tr            1.000e-006  5.000e-007

----------------------------Description of solution----------------------------

                                       pH  =   7.000      Charge balance
                                       pe  =  10.924      Adjusted to redox equilibrium
       Specific Conductance (uS/cm, 25 oC) = 10802
                          Density (g/cm3)  =   1.00116
                        Activity of water  =   0.997
                           Ionic strength  =  1.000e-001
                       Mass of water (kg)  =  5.000e-001
                 Total alkalinity (eq/kg)  =  1.486e-008
                    Total carbon (mol/kg)  =  0.000e+000
                       Total CO2 (mol/kg)  =  0.000e+000
                      Temperature (deg C)  =  25.000
                  Electrical balance (eq)  =  4.483e-010
 Percent error, 100*(Cat-|An|)/(Cat+|An|)  =   0.00
                               Iterations  =   0
                                  Total H  = 5.550622e+001
                                  Total O  = 2.775311e+001

----------------------------Distribution of species----------------------------

                                                   Log       Log         Log 
   Species                 Molality    Activity  Molality  Activity     Gamma

   OH-                   1.310e-007  9.977e-008    -6.883    -7.001    -0.118
   H+                    1.211e-007  1.000e-007    -6.917    -7.000    -0.083
   H2O                   5.551e+001  9.966e-001     1.744    -0.001     0.000
Cl              1.000e-001
   Cl-                   1.000e-001  7.645e-002    -1.000    -1.117    -0.117
Cl_tr           1.000e-006
   Cl_tr-                1.000e-006  1.000e-006    -6.000    -6.000    -0.000
H(0)            1.960e-039
   H2                    9.802e-040  1.003e-039   -39.009   -38.999     0.010
Hto             1.000e-006
   Hto                   1.000e-006  1.000e-006    -6.000    -6.000     0.000
Na              1.000e-001
   Na+                   1.000e-001  7.829e-002    -1.000    -1.106    -0.106
   NaOH                  5.038e-009  5.155e-009    -8.298    -8.288     0.010
Na_tr           1.000e-006
   Na_tr+                1.000e-006  1.000e-006    -6.000    -6.000    -0.000
O(0)            8.043e-015
   O2                    4.022e-015  4.115e-015   -14.396   -14.386     0.010
Sr_tr           1.000e-006
   Sr_tr+2               1.000e-006  1.000e-006    -6.000    -6.000    -0.000

------------------------------Saturation indices-------------------------------

	Phase               SI log IAP  log KT

	A_cl              6.89   -7.11  -14.00  NaCl_tr
	A_hto             9.00   -6.00  -15.00  Hto
	A_na              6.88   -7.12  -14.00  Na_trCl
	A_sr              5.77   -8.23  -14.00  Sr_trCl2
	H2(g)           -35.85  -39.00   -3.15  H2
	H2O(g)           -1.51   -0.00    1.51  H2O
	Halite           -3.80   -2.22    1.58  NaCl
	O2(g)           -11.49  -14.39   -2.89  O2

------------------
End of simulation.
------------------

------------------------------------
Reading input data for simulation 3.
------------------------------------

	SOLUTION 1-10
	 water 0.5
	Na 100
	 Cl 10 charge
	SURFACE 1-10
	 equilibrate 4
	  Su 0.05e1 1.0000e+00 1
	 donnan 5e-4 v 1
	END
-------------------------------------------
Beginning of initial solution calculations.
-------------------------------------------

Initial solution 1.	

-----------------------------Solution composition------------------------------

	Elements           Molality       Moles

	Cl               1.000e-001  5.000e-002  Charge balance
	Na               1.000e-001  5.000e-002

----------------------------Description of solution----------------------------

                                       pH  =   7.000    
                                       pe  =   4.000    
       Specific Conductance (uS/cm, 25 oC) = 10802
                          Density (g/cm3)  =   1.00116
                        Activity of water  =   0.997
                           Ionic strength  =  1.000e-001
                       Mass of water (kg)  =  5.000e-001
                 Total alkalinity (eq/kg)  =  1.486e-008
                    Total carbon (mol/kg)  =  0.000e+000
                       Total CO2 (mol/kg)  =  0.000e+000
                      Temperature (deg C)  =  25.000
                  Electrical balance (eq)  = -1.213e-013
 Percent error, 100*(Cat-|An|)/(Cat+|An|)  =  -0.00
                               Iterations  =   6
                                  Total H  = 5.550622e+001
                                  Total O  = 2.775311e+001

----------------------------Distribution of species----------------------------

                                                   Log       Log         Log 
   Species                 Molality    Activity  Molality  Activity     Gamma

   OH-                   1.310e-007  9.977e-008    -6.883    -7.001    -0.118
   H+                    1.211e-007  1.000e-007    -6.917    -7.000    -0.083
   H2O                   5.551e+001  9.966e-001     1.744    -0.001     0.000
Cl              1.000e-001
   Cl-                   1.000e-001  7.645e-002    -1.000    -1.117    -0.117
H(0)            1.384e-025
   H2                    6.918e-026  7.079e-026   -25.160   -25.150     0.010
Na              1.000e-001
   Na+                   1.000e-001  7.829e-002    -1.000    -1.106    -0.106
   NaOH                  5.038e-009  5.155e-009    -8.298    -8.288     0.010
O(0)            0.000e+000
   O2                    0.000e+000  0.000e+000   -42.093   -42.083     0.010

------------------------------Saturation indices-------------------------------

	Phase               SI log IAP  log KT

	H2(g)           -22.00  -25.15   -3.15  H2
	H2O(g)           -1.51   -0.00    1.51  H2O
	Halite           -3.80   -2.22    1.58  NaCl
	O2(g)           -39.19  -42.08   -2.89  O2

------------------------------------------------------
Beginning of initial surface-composition calculations.
------------------------------------------------------

Surface 1.	

Su            
	 4.438e-010  Surface + diffuse layer charge, eq
	-5.000e-001  Surface charge, eq
	-4.825e+004  sigma, C/m**2
	-7.589e-001  psi, V
	 2.954e+001  -F*psi/RT
	 6.755e+012  exp(-F*psi/RT)
	 1.000e+000  specific area, m**2/g
	 1.000e+000  m**2 for  1.000e+000 g

	Water in diffuse layer: 5.000e-001 kg, 100.0% of total DDL-water.

	Total moles in diffuse layer (excluding water), Donnan calculation 

	Element       	     Moles
	Cl            	 4.9510e-003
	H             	 6.2066e-007
	Na            	 5.0495e-001
	O             	 9.0023e-009

Su            
	 5.000e-001  moles
	                                   Mole                     Log
	Species               Moles    Fraction    Molality    Molality

	Su-              5.000e-001       1.000  1.000e+000       0.000

-----------------------------------------
Beginning of batch-reaction calculations.
-----------------------------------------

Reaction step 1.

Using solution 1.	
Using surface 1.	Surface assemblage after simulation 3.

------------------------------Surface composition------------------------------

Su            
	 1.615e-011  Surface + diffuse layer charge, eq
	-5.000e-001  Surface charge, eq
	-4.825e+004  sigma, C/m**2
	-7.589e-001  psi, V
	 2.954e+001  -F*psi/RT
	 6.755e+012  exp(-F*psi/RT)
	 1.000e+000  specific area, m**2/g
	 1.000e+000  m**2 for  1.000e+000 g

	Water in diffuse layer: 5.000e-001 kg, 100.0% of total DDL-water.

	Total moles in diffuse layer (excluding water), Donnan calculation 

	Element       	     Moles
	Cl            	 4.9510e-003
	H             	 6.2066e-007
	Na            	 5.0495e-001
	O             	 9.0023e-009

Su            
	 5.000e-001  moles
	                                   Mole                     Log
	Species               Moles    Fraction    Molality    Molality

	Su-              5.000e-001       1.000  1.000e+000       0.000

-----------------------------Solution composition------------------------------

	Elements           Molality       Moles

	Cl               1.000e-001  5.000e-002
	Na               1.000e-001  5.000e-002

----------------------------Description of solution----------------------------

                                       pH  =   7.000      Charge balance
                                       pe  =  10.792      Adjusted to redox equilibrium
       Specific Conductance (uS/cm, 25 oC) = 10802
                          Density (g/cm3)  =   1.00116
                        Activity of water  =   0.997
                           Ionic strength  =  1.000e-001
                       Mass of water (kg)  =  5.000e-001
                 Total alkalinity (eq/kg)  =  1.486e-008
                    Total carbon (mol/kg)  =  0.000e+000
                       Total CO2 (mol/kg)  =  0.000e+000
                      Temperature (deg C)  =  25.000
                  Electrical balance (eq)  =  4.437e-010
 Percent error, 100*(Cat-|An|)/(Cat+|An|)  =   0.00
                               Iterations  =   0
                                  Total H  = 5.550622e+001
                                  Total O  = 2.775311e+001

----------------------------Distribution of species----------------------------

                                                   Log       Log         Log 
   Species                 Molality    Activity  Molality  Activity     Gamma

   OH-                   1.310e-007  9.977e-008    -6.883    -7.001    -0.118
   H+                    1.211e-007  1.000e-007    -6.917    -7.000    -0.083
   H2O                   5.551e+001  9.966e-001     1.744    -0.001     0.000
Cl              1.000e-001
   Cl-                   1.000e-001  7.645e-002    -1.000    -1.117    -0.117
H(0)            3.604e-039
   H2                    1.802e-039  1.844e-039   -38.744   -38.734     0.010
Na              1.000e-001
   Na+                   1.000e-001  7.829e-002    -1.000    -1.106    -0.106
   NaOH                  5.038e-009  5.155e-009    -8.298    -8.288     0.010
O(0)            2.380e-015
   O2                    1.190e-015  1.218e-015   -14.924   -14.914     0.010

------------------------------Saturation indices-------------------------------

	Phase               SI log IAP  log KT

	H2(g)           -35.58  -38.73   -3.15  H2
	H2O(g)           -1.51   -0.00    1.51  H2O
	Halite           -3.80   -2.22    1.58  NaCl
	O2(g)           -12.02  -14.91   -2.89  O2

------------------
End of simulation.
------------------

------------------------------------
Reading input data for simulation 4.
------------------------------------

	EQUILIBRIUM_PHASES 6
	 A_hto 0 0
	 A_sr 0 0
	 A_na 0 0
	 A_cl 0 0
	END
------------------
End of simulation.
------------------

------------------------------------
Reading input data for simulation 5.
------------------------------------

	PRINT
	 reset false
WARNING: No dispersivities were read; disp = 0 assumed.
	SOLUTION_SPECIES
	Hto = Hto
	 log_k 0
	 gamma 1e6 0
	 erm_ddl 2
	SOLUTION 3
	 water 5.0000e-01
	Na 100
	 Cl 10 charge
	EQUILIBRIUM_PHASES 3
	 A_hto 9 10
	 A_sr 5.7667545 10
	 A_na 6.883379 10
	 A_cl 6.893704 10
	SAVE solution 3
	END
-------------------------------------------
Beginning of initial solution calculations.
-------------------------------------------

Initial solution 3.	

-----------------------------Solution composition------------------------------

	Elements           Molality       Moles

	Cl               1.000e-001  5.000e-002  Charge balance
	Na               1.000e-001  5.000e-002

----------------------------Description of solution----------------------------

                                       pH  =   7.000    
                                       pe  =   4.000    
       Specific Conductance (uS/cm, 25 oC) = 10802
                          Density (g/cm3)  =   1.00116
                        Activity of water  =   0.997
                           Ionic strength  =  1.000e-001
                       Mass of water (kg)  =  5.000e-001
                 Total alkalinity (eq/kg)  =  1.486e-008
                    Total carbon (mol/kg)  =  0.000e+000
                       Total CO2 (mol/kg)  =  0.000e+000
                      Temperature (deg C)  =  25.000
                  Electrical balance (eq)  = -1.213e-013
 Percent error, 100*(Cat-|An|)/(Cat+|An|)  =  -0.00
                               Iterations  =   6
                                  Total H  = 5.550622e+001
                                  Total O  = 2.775311e+001

----------------------------Distribution of species----------------------------

                                                   Log       Log         Log 
   Species                 Molality    Activity  Molality  Activity     Gamma

   OH-                   1.310e-007  9.977e-008    -6.883    -7.001    -0.118
   H+                    1.211e-007  1.000e-007    -6.917    -7.000    -0.083
   H2O                   5.551e+001  9.966e-001     1.744    -0.001     0.000
Cl              1.000e-001
   Cl-                   1.000e-001  7.645e-002    -1.000    -1.117    -0.117
H(0)            1.384e-025
   H2                    6.918e-026  7.079e-026   -25.160   -25.150     0.010
Na              1.000e-001
   Na+                   1.000e-001  7.829e-002    -1.000    -1.106    -0.106
   NaOH                  5.038e-009  5.155e-009    -8.298    -8.288     0.010
O(0)            0.000e+000
   O2                    0.000e+000  0.000e+000   -42.093   -42.083     0.010

------------------------------Saturation indices-------------------------------

	Phase               SI log IAP  log KT

	H2(g)           -22.00  -25.15   -3.15  H2
	H2O(g)           -1.51   -0.00    1.51  H2O
	Halite           -3.80   -2.22    1.58  NaCl
	O2(g)           -39.19  -42.08   -2.89  O2

-----------------------------------------
Beginning of batch-reaction calculations.
-----------------------------------------

Reaction step 1.

Using solution 3.	
Using pure phase assemblage 3.	

-------------------------------Phase assemblage--------------------------------

                                                      Moles in assemblage
Phase                  SI log IAP  log KT      Initial       Final       Delta

A_cl                 6.89   -7.11  -14.00   1.000e+001  1.000e+001 -5.000e-007
A_hto                9.00   -6.00  -15.00   1.000e+001  1.000e+001 -5.000e-007
A_na                 6.88   -7.12  -14.00   1.000e+001  1.000e+001 -5.000e-007
A_sr                 5.77   -8.23  -14.00   1.000e+001  1.000e+001 -5.000e-007

-----------------------------Solution composition------------------------------

	Elements           Molality       Moles

	Cl               1.000e-001  5.000e-002
	Cl_tr            1.000e-006  5.000e-007
	Hto              1.000e-006  5.000e-007
	Na               1.000e-001  5.000e-002
	Na_tr            1.000e-006  5.000e-007
	Sr_tr            1.000e-006  5.000e-007

----------------------------Description of solution----------------------------

                                       pH  =   7.000      Charge balance
                                       pe  =  10.489      Adjusted to redox equilibrium
       Specific Conductance (uS/cm, 25 oC) = 10802
                          Density (g/cm3)  =   1.00116
                        Activity of water  =   0.997
                           Ionic strength  =  1.000e-001
                       Mass of water (kg)  =  5.000e-001
                 Total alkalinity (eq/kg)  =  1.486e-008
                    Total carbon (mol/kg)  =  0.000e+000
                       Total CO2 (mol/kg)  =  0.000e+000
                      Temperature (deg C)  =  25.000
                  Electrical balance (eq)  = -1.670e-011
 Percent error, 100*(Cat-|An|)/(Cat+|An|)  =  -0.00
                               Iterations  =   8
                                  Total H  = 5.550622e+001
                                  Total O  = 2.775311e+001

----------------------------Distribution of species----------------------------

                                                   Log       Log         Log 
   Species                 Molality    Activity  Molality  Activity     Gamma

   OH-                   1.310e-007  9.977e-008    -6.883    -7.001    -0.118
   H+                    1.211e-007  1.000e-007    -6.917    -7.000    -0.083
   H2O                   5.551e+001  9.966e-001     1.744    -0.001     0.000
Cl              1.000e-001
   Cl-                   1.000e-001  7.645e-002    -1.000    -1.117    -0.117
Cl_tr           1.000e-006
   Cl_tr-                1.000e-006  1.000e-006    -6.000    -6.000    -0.000
H(0)            1.455e-038
   H2                    7.273e-039  7.442e-039   -38.138   -38.128     0.010
Hto             1.000e-006
   Hto                   1.000e-006  1.000e-006    -6.000    -6.000     0.000
Na              1.000e-001
   Na+                   1.000e-001  7.829e-002    -1.000    -1.106    -0.106
   NaOH                  5.038e-009  5.155e-009    -8.298    -8.288     0.010
Na_tr           1.000e-006
   Na_tr+                1.000e-006  1.000e-006    -6.000    -6.000    -0.000
O(0)            1.461e-016
   O2                    7.305e-017  7.475e-017   -16.136   -16.126     0.010
Sr_tr           1.000e-006
   Sr_tr+2               1.000e-006  1.000e-006    -6.000    -6.000    -0.000

------------------------------Saturation indices-------------------------------

	Phase               SI log IAP  log KT

	A_cl              6.89   -7.11  -14.00  NaCl_tr
	A_hto             9.00   -6.00  -15.00  Hto
	A_na              6.88   -7.12  -14.00  Na_trCl
	A_sr              5.77   -8.23  -14.00  Sr_trCl2
	H2(g)           -34.98  -38.13   -3.15  H2
	H2O(g)           -1.51   -0.00    1.51  H2O
	Halite           -3.80   -2.22    1.58  NaCl
	O2(g)           -13.23  -16.13   -2.89  O2

------------------
End of simulation.
------------------

------------------------------------
Reading input data for simulation 8.
------------------------------------

	SURFACE 3
	 equilibrate 3
	  Su 0.05e1 1.0000e+00 1
	 donnan 5e-4 v 1
	END
------------------------------------------------------
Beginning of initial surface-composition calculations.
------------------------------------------------------

Surface 3.	

Su            
	 4.486e-010  Surface + diffuse layer charge, eq
	-5.000e-001  Surface charge, eq
	-4.825e+004  sigma, C/m**2
	-7.589e-001  psi, V
	 2.954e+001  -F*psi/RT
	 6.755e+012  exp(-F*psi/RT)
	 1.000e+000  specific area, m**2/g
	 1.000e+000  m**2 for  1.000e+000 g

	Water in diffuse layer: 5.000e-001 kg, 100.0% of total DDL-water.

	Total moles in diffuse layer (excluding water), Donnan calculation 

	Element       	     Moles
	Cl            	 4.9522e-003
	Cl_tr         	 4.9521e-008
	H             	 6.2053e-007
	Hto           	 1.0000e-006
	Na            	 5.0484e-001
	Na_tr         	 5.0484e-006
	O             	 9.0038e-009
	Sr_tr         	 5.0973e-005

Su            
	 5.000e-001  moles
	                                   Mole                     Log
	Species               Moles    Fraction    Molality    Molality

	Su-              5.000e-001       1.000  1.000e+000       0.000

------------------
End of simulation.
------------------

------------------------------------
Reading input data for simulation 9.
------------------------------------

	PRINT
	 reset false
WARNING: Negative concentration in MCD: added 7.8e-008 moles Hto in cell 3.
WARNING: Negative concentration in MCD: added 1.6e-006 moles Na_tr in cell 3.
WARNING: Negative concentration in MCD: added 1.9e-005 moles Sr_tr in cell 3.
WARNING: Negative concentration in MCD: added 8.1e-007 moles Na_tr in cell 3.
WARNING: Negative concentration in MCD: added 1.2e-005 moles Sr_tr in cell 3.
WARNING: Negative concentration in MCD: added 4.7e-007 moles Na_tr in cell 3.
WARNING: Negative concentration in MCD: added 8.5e-006 moles Sr_tr in cell 3.
WARNING: Negative concentration in MCD: added 2.9e-007 moles Na_tr in cell 3.
WARNING: Negative concentration in MCD: added 6.8e-006 moles Sr_tr in cell 3.
WARNING: Negative concentration in MCD: added 1.9e-007 moles Na_tr in cell 3.
WARNING: Negative concentration in MCD: added 5.9e-006 moles Sr_tr in cell 3.
WARNING: Negative concentration in MCD: added 1.0e-007 moles Na_tr in cell 3.
WARNING: Negative concentration in MCD: added 5.0e-006 moles Sr_tr in cell 3.
WARNING: Negative concentration in MCD: added 7.2e-008 moles Na_tr in cell 3.
WARNING: Negative concentration in MCD: added 4.9e-006 moles Sr_tr in cell 3.
WARNING: Negative concentration in MCD: added 3.4e-006 moles Sr_tr in cell 3.
WARNING: Negative concentration in MCD: added 5.7e-008 moles Na_tr in cell 3.
WARNING: Negative concentration in MCD: added 5.3e-006 moles Sr_tr in cell 3.
WARNING: Negative concentration in MCD: added 2.6e-008 moles Na_tr in cell 4.
WARNING: Negative concentration in MCD: added 4.4e-006 moles Sr_tr in cell 4.
WARNING: Negative concentration in MCD: added 3.2e-007 moles Na_tr in cell 3.
WARNING: Negative concentration in MCD: added 8.0e-006 moles Sr_tr in cell 3.
WARNING: Negative concentration in MCD: added 1.4e-006 moles Sr_tr in cell 5.
WARNING: Negative concentration in MCD: added 1.342e-005 moles Sr_tr in cell 4
WARNING: Negative concentration in MCD: added 1.6e-003 moles Na in cell 4.
WARNING: Negative concentration in MCD: added 5.4e-007 moles Na_tr in cell 4.
WARNING: Negative concentration in MCD: added 4.5e-007 moles Sr_tr in cell 6.
WARNING: Negative concentration in MCD: added 1.2e-002 moles Na in cell 3.
WARNING: Negative concentration in MCD: added 6.6e-007 moles Na_tr in cell 3.
WARNING: Negative concentration in MCD: added 1.4e-005 moles Sr_tr in cell 3.
WARNING: Negative concentration in MCD: added 3.364e-006 moles Sr_tr in cell 5
WARNING: Negative concentration in MCD: added 1.4e-007 moles Na_tr in cell 5.
WARNING: Negative concentration in MCD: added 2.4e-007 moles Sr_tr in cell 7.
WARNING: Negative concentration in MCD: added 1.277e-003 moles Na in cell 4
WARNING: Negative concentration in MCD: added 7.396e-007 moles Na_tr in cell 4
WARNING: Negative concentration in MCD: added 4.095e-005 moles Sr_tr in cell 4
WARNING: Negative concentration in MCD: added 8.002e-007 moles Sr_tr in cell 6
WARNING: Negative concentration in MCD: added 7.0e-008 moles Na_tr in cell 6.
WARNING: Negative concentration in MCD: added 8.2e-007 moles Sr_tr in cell 8.
WARNING: Negative concentration in MCD: added 3.1e-007 moles Na_tr in cell 3.
WARNING: Negative concentration in MCD: added 6.5e-006 moles Sr_tr in cell 3.
WARNING: Negative concentration in MCD: added 6.635e-006 moles Sr_tr in cell 5
WARNING: Negative concentration in MCD: added 3.3e-007 moles Na_tr in cell 5.
WARNING: Negative concentration in MCD: added 3.042e-007 moles Sr_tr in cell 7
WARNING: Negative concentration in MCD: added 7.1e-003 moles Na in cell 7.
WARNING: Negative concentration in MCD: added 6.8e-008 moles Na_tr in cell 7.
WARNING: Negative concentration in MCD: added 1.053e-002 moles Na in cell 9
WARNING: Negative concentration in MCD: added 7.980e-007 moles Na_tr in cell 4
WARNING: Negative concentration in MCD: added 5.328e-005 moles Sr_tr in cell 4
WARNING: Negative concentration in MCD: added 4.5e-002 moles Na in cell 4.
WARNING: Negative concentration in MCD: added 2.471e-006 moles Sr_tr in cell 6
WARNING: Negative concentration in MCD: added 4.4e-003 moles Na in cell 6.
WARNING: Negative concentration in MCD: added 1.5e-007 moles Na_tr in cell 6.
WARNING: Negative concentration in MCD: added 9.430e-008 moles Sr_tr in cell 8
WARNING: Negative concentration in MCD: added 5.9e-002 moles Na in cell 8.
WARNING: Negative concentration in MCD: added 9.9e-008 moles Na_tr in cell 8.
WARNING: Negative concentration in MCD: added 8.4e-008 moles Na_tr in cell 3.
WARNING: Negative concentration in MCD: added 1.164e-005 moles Sr_tr in cell 5
WARNING: Negative concentration in MCD: added 4.1e-007 moles Na_tr in cell 5.
WARNING: Negative concentration in MCD: added 1.311e-006 moles Sr_tr in cell 7
WARNING: Negative concentration in MCD: added 8.6e-008 moles Na_tr in cell 7.
WARNING: Negative concentration in MCD: added 6.796e-007 moles Na_tr in cell 4
WARNING: Negative concentration in MCD: added 5.972e-005 moles Sr_tr in cell 4
WARNING: Negative concentration in MCD: added 2.3e-002 moles Na in cell 4.
WARNING: Negative concentration in MCD: added 4.846e-006 moles Sr_tr in cell 6
WARNING: Negative concentration in MCD: added 1.8e-007 moles Na_tr in cell 6.
WARNING: Negative concentration in MCD: added 2.532e-007 moles Sr_tr in cell 8
WARNING: Negative concentration in MCD: added 4.9e-002 moles Na in cell 8.
WARNING: Negative concentration in MCD: added 1.4e-007 moles Na_tr in cell 8.
WARNING: Negative concentration in MCD: added 1.781e-005 moles Sr_tr in cell 5
WARNING: Negative concentration in MCD: added 4.2e-007 moles Na_tr in cell 5.
WARNING: Negative concentration in MCD: added 2.197e-006 moles Sr_tr in cell 7
WARNING: Negative concentration in MCD: added 9.8e-008 moles Na_tr in cell 7.
WARNING: Negative concentration in MCD: added 6.377e-007 moles Na_tr in cell 4
WARNING: Negative concentration in MCD: added 7.119e-005 moles Sr_tr in cell 4
WARNING: Negative concentration in MCD: added 1.1e-002 moles Na in cell 4.
WARNING: Negative concentration in MCD: added 7.117e-006 moles Sr_tr in cell 6
WARNING: Negative concentration in MCD: added 1.4e-007 moles Na_tr in cell 6.
WARNING: Negative concentration in MCD: added 1.8e-002 moles Na in cell 8.
WARNING: Negative concentration in MCD: added 1.8e-007 moles Na_tr in cell 8.
WARNING: Negative concentration in MCD: added 1.1e-005 moles Sr_tr in cell 8.
WARNING: Negative concentration in MCD: added 2.391e-005 moles Sr_tr in cell 5
WARNING: Negative concentration in MCD: added 3.4e-007 moles Na_tr in cell 5.
WARNING: Negative concentration in MCD: added 4.652e-007 moles Sr_tr in cell 7
WARNING: Negative concentration in MCD: added 1.1e-007 moles Na_tr in cell 7.
WARNING: Negative concentration in MCD: added 6.426e-007 moles Na_tr in cell 4
WARNING: Negative concentration in MCD: added 8.789e-005 moles Sr_tr in cell 4
WARNING: Negative concentration in MCD: added 1.9e-003 moles Na in cell 4.
WARNING: Negative concentration in MCD: added 5.216e-006 moles Sr_tr in cell 6
WARNING: Negative concentration in MCD: added 6.6e-008 moles Na_tr in cell 6.
WARNING: Negative concentration in MCD: added 8.4e-004 moles Na in cell 8.
WARNING: Negative concentration in MCD: added 2.1e-007 moles Na_tr in cell 8.
WARNING: Negative concentration in MCD: added 1.8e-005 moles Sr_tr in cell 8.
WARNING: Negative concentration in MCD: added 2.811e-005 moles Sr_tr in cell 5
WARNING: Negative concentration in MCD: added 2.1e-007 moles Na_tr in cell 5.
WARNING: Negative concentration in MCD: added 1.2e-007 moles Na_tr in cell 7.
WARNING: Negative concentration in MCD: added 1.8e-005 moles Sr_tr in cell 7.
WARNING: Negative concentration in MCD: added 6.485e-007 moles Na_tr in cell 4
WARNING: Negative concentration in MCD: added 1.069e-004 moles Sr_tr in cell 4
WARNING: Negative concentration in MCD: added 6.0e-009 moles Na_tr in cell 6.
WARNING: Negative concentration in MCD: added 2.0e-005 moles Sr_tr in cell 6.
