   Input file: ddlsurf
  Output file: ddlsurf.out
Database file: ../database/phreeqc.dat

------------------
Reading data base.
------------------

	SOLUTION_MASTER_SPECIES
	SOLUTION_SPECIES
	PHASES
	EXCHANGE_MASTER_SPECIES
	EXCHANGE_SPECIES
	SURFACE_MASTER_SPECIES
	SURFACE_SPECIES
	RATES
	END
------------------------------------
Reading input data for simulation 1.
------------------------------------

	DATABASE ../database/phreeqc.dat
	SOLUTION 1
	                units   mol/kgw
	 pH 7.5
	  pe 5.3  O2(g) -10.0
	 density 1.003
	 temp    25.00
	                Ca              4.80e-3
	                Na              2.60e-2
	                Cl              3.56e-2 charge
	EXCHANGE_MASTER_SPECIES
	        X   X-
	EXCHANGE  1-3
	         CaX2           10
	         NaX            40
	 equilibrate 1
	EXCHANGE_SPECIES
	        X-        = X-
	                             log_k       0.0
	        X- +Na+   = NaX
	                            log_k       0.0
	       2X- +Ca+2  = CaX2
	                           log_k       0.5
	SURFACE_MASTER_SPECIES
	Bfa     BfaOH
	Hfw     HfwOH
	SURFACE_SPECIES
	BfaOH = BfaOH 
	           log_k 0.0
	BfaOH + H+ = BfaOH2+
	     log_k 7.29
	HfwOH = HfwOH 
	           log_k 2.0
	HfwOH + Na+ = HfwONa +H+
	 log_k 5.29
	KNOBS
	iterations 5000 # allowed iteration number is 5000
	SURFACE 1-3
	Bfa  23   30 1E4
	Hfw  10   30 1e6
	Hfo_w  1 600 1e5
	equilibrate  1
	donnan debye_lengths 1 limit_ddl 0.99 viscosity 1
	CALCULATE_VALUES
	eNaH
	 start
	 10 save EDL("Na","Hfw")
	 end
	eNaB
	 start
	 10 save EDL("Na","Bfa")
	 end
	eCa
	 start
	 10 save EDL("Ca")
	 end
	eCl
	 start
	 10 save EDL("Cl")
	 end
	wHfw
	 start
	10 save EDL("Water", "Hfw")
	 end
	wBfa
	 start
	10 save edl("water", "Bfa")
	 end
	wHfo
	 start
	10 save edl("water", "Hfo")
	 end
	H2O
	 start
	10 save edl("water", "Bfa") + edl("water", "Hfw")  + edl("water", "Hfo")+ tot("water")
	 end
	SELECTED_OUTPUT
	        file            ddlsurf.sel
	        reset           false
	        step
	        time
	        distance
	        ph
	        water
	        ionic_strength
	        totals           Na Ca Cl X Hfo_s
	        molalities       NaX Na+ CaX2 HfwONa
	        calculate_values eNaH eNaB eCa eCl wHfw wBfa wHfo H2O
	        equilibrium_phases
	        saturation_indices
	End
-------------------------------------------
Beginning of initial solution calculations.
-------------------------------------------

Initial solution 1.	

-----------------------------Solution composition------------------------------

	Elements           Molality       Moles

	Ca               4.800e-003  4.800e-003
	Cl               3.560e-002  3.560e-002  Charge balance
	Na               2.600e-002  2.600e-002

----------------------------Description of solution----------------------------

                                       pH  =   7.500    
                                       pe  =  10.797      Equilibrium with O2(g)
       Specific Conductance (uS/cm, 25 oC) = 4013
                          Density (g/cm3)  =   0.99856
                        Activity of water  =   0.999
                           Ionic strength  =  4.040e-002
                       Mass of water (kg)  =  1.000e+000
                 Total alkalinity (eq/kg)  =  3.659e-007
                    Total carbon (mol/kg)  =  0.000e+000
                       Total CO2 (mol/kg)  =  0.000e+000
                      Temperature (deg C)  =  25.000
                  Electrical balance (eq)  = -6.959e-017
 Percent error, 100*(Cat-|An|)/(Cat+|An|)  =  -0.00
                               Iterations  =   8
                                  Total H  = 1.110124e+002
                                  Total O  = 5.550622e+001

----------------------------Distribution of species----------------------------

                                                   Log       Log         Log 
   Species                 Molality    Activity  Molality  Activity     Gamma

   OH-                   3.829e-007  3.162e-007    -6.417    -6.500    -0.083
   H+                    3.666e-008  3.162e-008    -7.436    -7.500    -0.064
   H2O                   5.551e+001  9.989e-001     1.744    -0.000     0.000
Ca              4.800e-003
   Ca+2                  4.800e-003  2.399e-003    -2.319    -2.620    -0.301
   CaOH+                 1.509e-008  1.258e-008    -7.821    -7.900    -0.079
Cl              3.560e-002
   Cl-                   3.560e-002  2.944e-002    -1.449    -1.531    -0.083
H(0)            3.570e-040
   H2                    1.785e-040  1.802e-040   -39.748   -39.744     0.004
Na              2.600e-002
   Na+                   2.600e-002  2.173e-002    -1.585    -1.663    -0.078
   NaOH                  4.492e-009  4.534e-009    -8.348    -8.343     0.004
O(0)            2.539e-013
   O2                    1.269e-013  1.281e-013   -12.896   -12.892     0.004

------------------------------Saturation indices-------------------------------

	Phase               SI log IAP  log KT

	H2(g)           -36.59  -39.74   -3.15  H2
	H2O(g)           -1.51   -0.00    1.51  H2O
	Halite           -4.78   -3.19    1.58  NaCl
	O2(g)           -10.00  -12.89   -2.89  O2

-------------------------------------------------------
Beginning of initial exchange-composition calculations.
-------------------------------------------------------

Exchange 1.	

X               6.000e+001 mol

	                               Equiv-    Equivalent      Log 
	Species             Moles      alents      Fraction     Gamma

	CaX2             2.339e+001  4.678e+001  7.797e-001     0.000
	NaX              1.322e+001  1.322e+001  2.203e-001     0.000

------------------------------------------------------
Beginning of initial surface-composition calculations.
------------------------------------------------------

Surface 1.	

Bfa           
	-1.607e-016  Surface + diffuse layer charge, eq
	 2.629e-001  Surface charge, eq
	 8.455e-002  sigma, C/m**2
	 1.022e-001  psi, V
	-3.977e+000  -F*psi/RT
	 1.875e-002  exp(-F*psi/RT)
	 3.000e+001  specific area, m**2/g
	 3.000e+005  m**2 for  1.000e+004 g

	Water in diffuse layer: 2.529e-001 kg,  0.3% of total DDL-water.
	Radius of total pore:   1.708e-009 m; of free pore: 1.945e-010 m.

	Total moles in diffuse layer (excluding water), Donnan calculation 

	Element       	     Moles
	Ca            	 1.4208e-006
	Cl            	 2.6310e-001
	H             	 2.8318e-006
	Na            	 2.2493e-004
	O             	 2.8314e-006

Bfa           
	 2.300e+001  moles
	                                   Mole                     Log
	Species               Moles    Fraction    Molality    Molality

	BfaOH            2.274e+001       0.989  2.274e+001       1.357
	BfaOH2+          2.629e-001       0.011  2.629e-001      -0.580

Hfo           
	-2.658e-017  Surface + diffuse layer charge, eq
	 3.756e-001  Surface charge, eq
	 6.040e-004  sigma, C/m**2
	 1.315e-003  psi, V
	-5.119e-002  -F*psi/RT
	 9.501e-001  exp(-F*psi/RT)
	 6.000e+002  specific area, m**2/g
	 6.000e+007  m**2 for  1.000e+005 g

	Water in diffuse layer: 5.057e+001 kg, 66.4% of total DDL-water.
	Radius of total pore:   1.708e-009 m; of free pore: 1.945e-010 m.

	Total moles in diffuse layer (excluding water), Donnan calculation 

	Element       	     Moles
	Ca            	 2.0144e-001
	Cl            	 1.9762e+000
	H             	 2.3870e-005
	Na            	 1.1978e+000
	O             	 2.2181e-005

Hfo_w         
	 1.000e+000  moles
	                                   Mole                     Log
	Species               Moles    Fraction    Molality    Molality

	Hfo_wOH          5.791e-001       0.579  5.791e-001      -0.237
	Hfo_wOH2+        3.393e-001       0.339  3.393e-001      -0.469
	Hfo_wOCa+        5.896e-002       0.059  5.896e-002      -1.229
	Hfo_wO-          2.265e-002       0.023  2.265e-002      -1.645

Hfw           
	-1.854e-015  Surface + diffuse layer charge, eq
	 0.000e+000  Surface charge, eq
	 0.000e+000  sigma, C/m**2
	 3.423e-014  psi, V
	-1.332e-012  -F*psi/RT
	 1.000e+000  exp(-F*psi/RT)
	 3.000e+001  specific area, m**2/g
	 3.000e+007  m**2 for  1.000e+006 g

	Water in diffuse layer: 2.529e+001 kg, 33.2% of total DDL-water.
	Radius of total pore:   1.708e-009 m; of free pore: 1.945e-010 m.

	Total moles in diffuse layer (excluding water), Donnan calculation 

	Element       	     Moles
	Ca            	 1.2137e-001
	Cl            	 9.0015e-001
	H             	 1.1105e-005
	Na            	 6.5742e-001
	O             	 1.0178e-005

Hfw           
	 1.000e+001  moles
	                                   Mole                     Log
	Species               Moles    Fraction    Molality    Molality

	HfwONa           1.000e+001       1.000  1.000e+001       1.000
	HfwOH            7.464e-011       0.000  7.464e-011     -10.127

-----------------------------------------
Beginning of batch-reaction calculations.
-----------------------------------------

Reaction step 1.

Using solution 1.	
Using exchange 1.	Exchange assemblage after simulation 1.
Using surface 1.	Surface assemblage after simulation 1.

------------------------------Surface composition------------------------------

Bfa           
	-2.679e-011  Surface + diffuse layer charge, eq
	 2.629e-001  Surface charge, eq
	 8.455e-002  sigma, C/m**2
	 1.022e-001  psi, V
	-3.977e+000  -F*psi/RT
	 1.875e-002  exp(-F*psi/RT)
	 3.000e+001  specific area, m**2/g
	 3.000e+005  m**2 for  1.000e+004 g

	Water in diffuse layer: 2.529e-001 kg,  0.3% of total DDL-water.
	Radius of total pore:   1.708e-009 m; of free pore: 1.945e-010 m.

	Total moles in diffuse layer (excluding water), Donnan calculation 

	Element       	     Moles
	Ca            	 1.4208e-006
	Cl            	 2.6310e-001
	H             	 2.8318e-006
	Na            	 2.2493e-004
	O             	 2.8314e-006

Bfa           
	 2.300e+001  moles
	                                   Mole                     Log
	Species               Moles    Fraction    Molality    Molality

	BfaOH            2.274e+001       0.989  2.274e+001       1.357
	BfaOH2+          2.629e-001       0.011  2.629e-001      -0.580

Hfo           
	-3.825e-011  Surface + diffuse layer charge, eq
	 3.756e-001  Surface charge, eq
	 6.040e-004  sigma, C/m**2
	 1.315e-003  psi, V
	-5.119e-002  -F*psi/RT
	 9.501e-001  exp(-F*psi/RT)
	 6.000e+002  specific area, m**2/g
	 6.000e+007  m**2 for  1.000e+005 g

	Water in diffuse layer: 5.057e+001 kg, 66.4% of total DDL-water.
	Radius of total pore:   1.708e-009 m; of free pore: 1.945e-010 m.

	Total moles in diffuse layer (excluding water), Donnan calculation 

	Element       	     Moles
	Ca            	 2.0144e-001
	Cl            	 1.9762e+000
	H             	 2.3870e-005
	Na            	 1.1978e+000
	O             	 2.2181e-005

Hfo_w         
	 1.000e+000  moles
	                                   Mole                     Log
	Species               Moles    Fraction    Molality    Molality

	Hfo_wOH          5.791e-001       0.579  5.791e-001      -0.237
	Hfo_wOH2+        3.393e-001       0.339  3.393e-001      -0.469
	Hfo_wOCa+        5.896e-002       0.059  5.896e-002      -1.229
	Hfo_wO-          2.265e-002       0.023  2.265e-002      -1.645

Hfw           
	-5.371e-014  Surface + diffuse layer charge, eq
	 0.000e+000  Surface charge, eq
	 0.000e+000  sigma, C/m**2
	-4.412e-013  psi, V
	 1.718e-011  -F*psi/RT
	 1.000e+000  exp(-F*psi/RT)
	 3.000e+001  specific area, m**2/g
	 3.000e+007  m**2 for  1.000e+006 g

	Water in diffuse layer: 2.529e+001 kg, 33.2% of total DDL-water.
	Radius of total pore:   1.708e-009 m; of free pore: 1.945e-010 m.

	Total moles in diffuse layer (excluding water), Donnan calculation 

	Element       	     Moles
	Ca            	 1.2137e-001
	Cl            	 9.0015e-001
	H             	 1.1105e-005
	Na            	 6.5742e-001
	O             	 1.0178e-005

Hfw           
	 1.000e+001  moles
	                                   Mole                     Log
	Species               Moles    Fraction    Molality    Molality

	HfwONa           1.000e+001       1.000  1.000e+001       1.000
	HfwOH            7.464e-011       0.000  7.464e-011     -10.127

-----------------------------Exchange composition------------------------------

X               6.000e+001 mol

	                               Equiv-    Equivalent      Log 
	Species             Moles      alents      Fraction     Gamma

	CaX2             2.339e+001  4.678e+001  7.797e-001     0.000
	NaX              1.322e+001  1.322e+001  2.203e-001     0.000

-----------------------------Solution composition------------------------------

	Elements           Molality       Moles

	Ca               4.800e-003  4.800e-003
	Cl               3.560e-002  3.560e-002
	Na               2.600e-002  2.600e-002

----------------------------Description of solution----------------------------

                                       pH  =   7.500      Charge balance
                                       pe  =  10.796      Adjusted to redox equilibrium
       Specific Conductance (uS/cm, 25 oC) = 4013
                          Density (g/cm3)  =   0.99856
                        Activity of water  =   0.999
                           Ionic strength  =  4.040e-002
                       Mass of water (kg)  =  1.000e+000
                 Total alkalinity (eq/kg)  =  3.659e-007
                    Total carbon (mol/kg)  =  0.000e+000
                       Total CO2 (mol/kg)  =  0.000e+000
                      Temperature (deg C)  =  25.000
                  Electrical balance (eq)  = -2.123e-015
 Percent error, 100*(Cat-|An|)/(Cat+|An|)  =  -0.00
                               Iterations  =   0
                                  Total H  = 1.110124e+002
                                  Total O  = 5.550622e+001

----------------------------Distribution of species----------------------------

                                                   Log       Log         Log 
   Species                 Molality    Activity  Molality  Activity     Gamma

   OH-                   3.829e-007  3.162e-007    -6.417    -6.500    -0.083
   H+                    3.666e-008  3.162e-008    -7.436    -7.500    -0.064
   H2O                   4.280e+003  9.989e-001     3.631    -0.000     0.000
Ca              4.800e-003
   Ca+2                  4.800e-003  2.399e-003    -2.319    -2.620    -0.301
   CaOH+                 1.509e-008  1.258e-008    -7.821    -7.900    -0.079
Cl              3.560e-002
   Cl-                   3.560e-002  2.944e-002    -1.449    -1.531    -0.083
H(0)            3.595e-040
   H2                    1.798e-040  1.814e-040   -39.745   -39.741     0.004
Na              2.600e-002
   Na+                   2.600e-002  2.173e-002    -1.585    -1.663    -0.078
   NaOH                  4.492e-009  4.534e-009    -8.348    -8.343     0.004
O(0)            2.503e-013
   O2                    1.252e-013  1.263e-013   -12.902   -12.898     0.004

------------------------------Saturation indices-------------------------------

	Phase               SI log IAP  log KT

	H2(g)           -36.59  -39.74   -3.15  H2
	H2O(g)           -1.51   -0.00    1.51  H2O
	Halite           -4.78   -3.19    1.58  NaCl
	O2(g)           -10.01  -12.90   -2.89  O2

------------------
End of simulation.
------------------

------------------------------------
Reading input data for simulation 2.
------------------------------------

	USE surface 1
	 USE solution 1
	END
-----------------------------------------
Beginning of batch-reaction calculations.
-----------------------------------------

Reaction step 1.

Using solution 1.	
Using surface 1.	Surface assemblage after simulation 1.

------------------------------Surface composition------------------------------

Bfa           
	-2.678e-011  Surface + diffuse layer charge, eq
	 2.629e-001  Surface charge, eq
	 8.455e-002  sigma, C/m**2
	 1.022e-001  psi, V
	-3.977e+000  -F*psi/RT
	 1.875e-002  exp(-F*psi/RT)
	 3.000e+001  specific area, m**2/g
	 3.000e+005  m**2 for  1.000e+004 g

	Water in diffuse layer: 2.529e-001 kg,  0.3% of total DDL-water.
	Radius of total pore:   1.708e-009 m; of free pore: 1.945e-010 m.

	Total moles in diffuse layer (excluding water), Donnan calculation 

	Element       	     Moles
	Ca            	 1.4208e-006
	Cl            	 2.6310e-001
	H             	 2.8318e-006
	Na            	 2.2493e-004
	O             	 2.8314e-006

Bfa           
	 2.300e+001  moles
	                                   Mole                     Log
	Species               Moles    Fraction    Molality    Molality

	BfaOH            2.274e+001       0.989  2.274e+001       1.357
	BfaOH2+          2.629e-001       0.011  2.629e-001      -0.580

Hfo           
	-3.827e-011  Surface + diffuse layer charge, eq
	 3.756e-001  Surface charge, eq
	 6.040e-004  sigma, C/m**2
	 1.315e-003  psi, V
	-5.119e-002  -F*psi/RT
	 9.501e-001  exp(-F*psi/RT)
	 6.000e+002  specific area, m**2/g
	 6.000e+007  m**2 for  1.000e+005 g

	Water in diffuse layer: 5.057e+001 kg, 66.4% of total DDL-water.
	Radius of total pore:   1.708e-009 m; of free pore: 1.945e-010 m.

	Total moles in diffuse layer (excluding water), Donnan calculation 

	Element       	     Moles
	Ca            	 2.0144e-001
	Cl            	 1.9762e+000
	H             	 2.3870e-005
	Na            	 1.1978e+000
	O             	 2.2181e-005

Hfo_w         
	 1.000e+000  moles
	                                   Mole                     Log
	Species               Moles    Fraction    Molality    Molality

	Hfo_wOH          5.791e-001       0.579  5.791e-001      -0.237
	Hfo_wOH2+        3.393e-001       0.339  3.393e-001      -0.469
	Hfo_wOCa+        5.896e-002       0.059  5.896e-002      -1.229
	Hfo_wO-          2.265e-002       0.023  2.265e-002      -1.645

Hfw           
	-5.294e-014  Surface + diffuse layer charge, eq
	 0.000e+000  Surface charge, eq
	 0.000e+000  sigma, C/m**2
	-1.079e-011  psi, V
	 4.200e-010  -F*psi/RT
	 1.000e+000  exp(-F*psi/RT)
	 3.000e+001  specific area, m**2/g
	 3.000e+007  m**2 for  1.000e+006 g

	Water in diffuse layer: 2.529e+001 kg, 33.2% of total DDL-water.
	Radius of total pore:   1.708e-009 m; of free pore: 1.945e-010 m.

	Total moles in diffuse layer (excluding water), Donnan calculation 

	Element       	     Moles
	Ca            	 1.2137e-001
	Cl            	 9.0015e-001
	H             	 1.1105e-005
	Na            	 6.5742e-001
	O             	 1.0178e-005

Hfw           
	 1.000e+001  moles
	                                   Mole                     Log
	Species               Moles    Fraction    Molality    Molality

	HfwONa           1.000e+001       1.000  1.000e+001       1.000
	HfwOH            7.464e-011       0.000  7.464e-011     -10.127

-----------------------------Solution composition------------------------------

	Elements           Molality       Moles

	Ca               4.800e-003  4.800e-003
	Cl               3.560e-002  3.560e-002
	Na               2.600e-002  2.600e-002

----------------------------Description of solution----------------------------

                                       pH  =   7.500      Charge balance
                                       pe  =  10.796      Adjusted to redox equilibrium
       Specific Conductance (uS/cm, 25 oC) = 4013
                          Density (g/cm3)  =   0.99856
                        Activity of water  =   0.999
                           Ionic strength  =  4.040e-002
                       Mass of water (kg)  =  1.000e+000
                 Total alkalinity (eq/kg)  =  3.659e-007
                    Total carbon (mol/kg)  =  0.000e+000
                       Total CO2 (mol/kg)  =  0.000e+000
                      Temperature (deg C)  =  25.000
                  Electrical balance (eq)  = -2.091e-015
 Percent error, 100*(Cat-|An|)/(Cat+|An|)  =  -0.00
                               Iterations  =   0
                                  Total H  = 1.110124e+002
                                  Total O  = 5.550622e+001

----------------------------Distribution of species----------------------------

                                                   Log       Log         Log 
   Species                 Molality    Activity  Molality  Activity     Gamma

   OH-                   3.829e-007  3.162e-007    -6.417    -6.500    -0.083
   H+                    3.666e-008  3.162e-008    -7.436    -7.500    -0.064
   H2O                   4.280e+003  9.989e-001     3.631    -0.000     0.000
Ca              4.800e-003
   Ca+2                  4.800e-003  2.399e-003    -2.319    -2.620    -0.301
   CaOH+                 1.509e-008  1.258e-008    -7.821    -7.900    -0.079
Cl              3.560e-002
   Cl-                   3.560e-002  2.944e-002    -1.449    -1.531    -0.083
H(0)            3.596e-040
   H2                    1.798e-040  1.815e-040   -39.745   -39.741     0.004
Na              2.600e-002
   Na+                   2.600e-002  2.173e-002    -1.585    -1.663    -0.078
   NaOH                  4.492e-009  4.534e-009    -8.348    -8.343     0.004
O(0)            2.503e-013
   O2                    1.251e-013  1.263e-013   -12.903   -12.899     0.004

------------------------------Saturation indices-------------------------------

	Phase               SI log IAP  log KT

	H2(g)           -36.59  -39.74   -3.15  H2
	H2O(g)           -1.51   -0.00    1.51  H2O
	Halite           -4.78   -3.19    1.58  NaCl
	O2(g)           -10.01  -12.90   -2.89  O2

------------------
End of simulation.
------------------

------------------------------------
Reading input data for simulation 3.
------------------------------------

-----------
End of run.
-----------

