   Input file: de
  Output file: de.out
Database file: phreeqc.dat

------------------
Reading data base.
------------------

	SOLUTION_MASTER_SPECIES
	SOLUTION_SPECIES
	PHASES
	EXCHANGE_MASTER_SPECIES
	EXCHANGE_SPECIES
	SURFACE_MASTER_SPECIES
	SURFACE_SPECIES
	RATES
	END
------------------------------------
Reading input data for simulation 1.
------------------------------------

	 SOLUTION_SPECIES
	  H2O + 0.01e- = H2O-0.01  # For program convergence
	  log_k  -9.0 
	 EQUILIBRIUM_PHASES 1-50   # Define sediment
	  Goethite 3.0  10.7e-3    # Goetite equilibrium, SI, moles (100 ppm Fe in solid)
	 SOLUTION 1-50             # Define groundwater, 50 cells
	  temp 10
	  pH   7.0
	  pe   0.0  Goethite 3.0
	  Ca   3
	  C(4) 6 charge
	  Fe   0.1
	  Cl   1e-3                # Cl added as tracer
	END
-------------------------------------------
Beginning of initial solution calculations.
-------------------------------------------

Initial solution 1.	

-----------------------------Solution composition------------------------------

	Elements           Molality       Moles

	C(4)             7.786e-003  7.786e-003  Charge balance
	Ca               3.000e-003  3.000e-003
	Cl               1.000e-006  1.000e-006
	Fe               1.000e-004  1.000e-004

----------------------------Description of solution----------------------------

                                       pH  =   7.000    
                                       pe  =  -0.721      Equilibrium with Goethite
       Specific Conductance (uS/cm, 25 oC) = 557
                          Density (g/cm3)  =   1.00012
                        Activity of water  =   1.000
                           Ionic strength  =  9.001e-003
                       Mass of water (kg)  =  1.000e+000
                 Total alkalinity (eq/kg)  =  6.199e-003
                       Total CO2 (mol/kg)  =  7.786e-003
                      Temperature (deg C)  =  10.000
                  Electrical balance (eq)  =  7.491e-018
 Percent error, 100*(Cat-|An|)/(Cat+|An|)  =   0.00
                               Iterations  =   5
                                  Total H  = 1.110186e+002
                                  Total O  = 5.552798e+001

----------------------------Distribution of species----------------------------

                                                   Log       Log         Log 
   Species                 Molality    Activity  Molality  Activity     Gamma

   H+                    1.089e-007  1.000e-007    -6.963    -7.000    -0.037
   OH-                   3.226e-008  2.925e-008    -7.491    -7.534    -0.043
   H2O-0.01              1.017e-009  1.017e-009    -8.993    -8.993    -0.000
   H2O                   5.551e+001  9.998e-001     1.744    -0.000     0.000
C(4)            7.786e-003
   HCO3-                 6.040e-003  5.503e-003    -2.219    -2.259    -0.040
   CO2                   1.596e-003  1.600e-003    -2.797    -2.796     0.001
   CaHCO3+               1.114e-004  1.015e-004    -3.953    -3.993    -0.040
   FeHCO3+               2.895e-005  2.629e-005    -4.538    -4.580    -0.042
   CaCO3                 4.845e-006  4.855e-006    -5.315    -5.314     0.001
   CO3-2                 2.597e-006  1.789e-006    -5.586    -5.747    -0.162
   FeCO3                 2.047e-006  2.051e-006    -5.689    -5.688     0.001
Ca              3.000e-003
   Ca+2                  2.884e-003  1.986e-003    -2.540    -2.702    -0.162
   CaHCO3+               1.114e-004  1.015e-004    -3.953    -3.993    -0.040
   CaCO3                 4.845e-006  4.855e-006    -5.315    -5.314     0.001
   CaOH+                 3.627e-009  3.295e-009    -8.440    -8.482    -0.042
Cl              1.000e-006
   Cl-                   9.999e-007  9.068e-007    -6.000    -6.042    -0.042
   FeCl+                 6.585e-011  5.982e-011   -10.181   -10.223    -0.042
   FeCl+2                8.904e-024  6.060e-024   -23.050   -23.218    -0.167
   FeCl2+                4.459e-029  4.050e-029   -28.351   -28.393    -0.042
   FeCl3                 3.665e-036  3.673e-036   -35.436   -35.435     0.001
Fe(2)           1.000e-004
   Fe+2                  6.895e-005  4.779e-005    -4.161    -4.321    -0.159
   FeHCO3+               2.895e-005  2.629e-005    -4.538    -4.580    -0.042
   FeCO3                 2.047e-006  2.051e-006    -5.689    -5.688     0.001
   FeOH+                 5.110e-008  4.642e-008    -7.292    -7.333    -0.042
   FeCl+                 6.585e-011  5.982e-011   -10.181   -10.223    -0.042
Fe(3)           2.962e-011
   Fe(OH)2+              1.862e-011  1.691e-011   -10.730   -10.772    -0.042
   Fe(OH)3               1.092e-011  1.094e-011   -10.962   -10.961     0.001
   Fe(OH)4-              5.824e-014  5.290e-014   -13.235   -13.277    -0.042
   FeOH+2                1.366e-014  9.301e-015   -13.864   -14.031    -0.167
   Fe+3                  7.848e-019  3.651e-019   -18.105   -18.438    -0.332
   FeCl+2                8.904e-024  6.060e-024   -23.050   -23.218    -0.167
   Fe2(OH)2+4            2.083e-026  4.472e-027   -25.681   -26.350    -0.668
   FeCl2+                4.459e-029  4.050e-029   -28.351   -28.393    -0.042
   Fe3(OH)4+5            7.515e-034  6.787e-035   -33.124   -34.168    -1.044
   FeCl3                 3.665e-036  3.673e-036   -35.436   -35.435     0.001
H(0)            4.575e-016
   H2                    2.288e-016  2.292e-016   -15.641   -15.640     0.001
O(0)            0.000e+000
   O2                    0.000e+000  0.000e+000   -66.199   -66.198     0.001

------------------------------Saturation indices-------------------------------

	Phase               SI log IAP  log KT

	Aragonite        -0.19   -8.45   -8.26  CaCO3
	Calcite          -0.04   -8.45   -8.41  CaCO3
	CO2(g)           -1.53   -2.80   -1.27  CO2
	Fe(OH)3(a)       -2.33    2.56    4.89  Fe(OH)3
	Goethite          3.00    2.56   -0.44  FeOOH
	H2(g)           -12.56  -15.64   -3.08  H2
	H2O(g)           -1.92   -0.00    1.92  H2O
	Hematite          7.93    5.12   -2.81  Fe2O3
	O2(g)           -63.43  -66.20   -2.77  O2
	Siderite          0.73  -10.07  -10.79  FeCO3

-----------------------------------------
Beginning of batch-reaction calculations.
-----------------------------------------

Reaction step 1.

Using solution 1.	
Using pure phase assemblage 1.	

-------------------------------Phase assemblage--------------------------------

                                                      Moles in assemblage
Phase                  SI log IAP  log KT      Initial       Final       Delta

Goethite             3.00    2.56   -0.44   1.070e-002  1.070e-002 -5.940e-015

-----------------------------Solution composition------------------------------

	Elements           Molality       Moles

	C                7.786e-003  7.786e-003
	Ca               3.000e-003  3.000e-003
	Cl               1.000e-006  1.000e-006
	Fe               1.000e-004  1.000e-004

----------------------------Description of solution----------------------------

                                       pH  =   7.000      Charge balance
                                       pe  =  -0.721      Adjusted to redox equilibrium
       Specific Conductance (uS/cm, 25 oC) = 557
                          Density (g/cm3)  =   1.00012
                        Activity of water  =   1.000
                           Ionic strength  =  9.001e-003
                       Mass of water (kg)  =  1.000e+000
                 Total alkalinity (eq/kg)  =  6.199e-003
                       Total CO2 (mol/kg)  =  7.786e-003
                      Temperature (deg C)  =  10.000
                  Electrical balance (eq)  = -9.275e-018
 Percent error, 100*(Cat-|An|)/(Cat+|An|)  =  -0.00
                               Iterations  =   1
                                  Total H  = 1.110186e+002
                                  Total O  = 5.552798e+001

----------------------------Distribution of species----------------------------

                                                   Log       Log         Log 
   Species                 Molality    Activity  Molality  Activity     Gamma

   H+                    1.089e-007  1.000e-007    -6.963    -7.000    -0.037
   OH-                   3.226e-008  2.925e-008    -7.491    -7.534    -0.043
   H2O-0.01              1.017e-009  1.017e-009    -8.993    -8.993    -0.000
   H2O                   5.551e+001  9.998e-001     1.744    -0.000     0.000
C(-4)           2.892e-027
   CH4                   2.892e-027  2.898e-027   -26.539   -26.538     0.001
C(4)            7.786e-003
   HCO3-                 6.040e-003  5.503e-003    -2.219    -2.259    -0.040
   CO2                   1.596e-003  1.600e-003    -2.797    -2.796     0.001
   CaHCO3+               1.114e-004  1.015e-004    -3.953    -3.993    -0.040
   FeHCO3+               2.895e-005  2.629e-005    -4.538    -4.580    -0.042
   CaCO3                 4.845e-006  4.855e-006    -5.315    -5.314     0.001
   CO3-2                 2.597e-006  1.789e-006    -5.586    -5.747    -0.162
   FeCO3                 2.047e-006  2.051e-006    -5.689    -5.688     0.001
Ca              3.000e-003
   Ca+2                  2.884e-003  1.986e-003    -2.540    -2.702    -0.162
   CaHCO3+               1.114e-004  1.015e-004    -3.953    -3.993    -0.040
   CaCO3                 4.845e-006  4.855e-006    -5.315    -5.314     0.001
   CaOH+                 3.627e-009  3.295e-009    -8.440    -8.482    -0.042
Cl              1.000e-006
   Cl-                   9.999e-007  9.068e-007    -6.000    -6.042    -0.042
   FeCl+                 6.585e-011  5.982e-011   -10.181   -10.223    -0.042
   FeCl+2                8.904e-024  6.060e-024   -23.050   -23.218    -0.167
   FeCl2+                4.459e-029  4.050e-029   -28.351   -28.393    -0.042
   FeCl3                 3.665e-036  3.673e-036   -35.436   -35.435     0.001
Fe(2)           1.000e-004
   Fe+2                  6.895e-005  4.779e-005    -4.161    -4.321    -0.159
   FeHCO3+               2.895e-005  2.629e-005    -4.538    -4.580    -0.042
   FeCO3                 2.047e-006  2.051e-006    -5.689    -5.688     0.001
   FeOH+                 5.110e-008  4.642e-008    -7.292    -7.333    -0.042
   FeCl+                 6.585e-011  5.982e-011   -10.181   -10.223    -0.042
Fe(3)           2.962e-011
   Fe(OH)2+              1.862e-011  1.691e-011   -10.730   -10.772    -0.042
   Fe(OH)3               1.092e-011  1.094e-011   -10.962   -10.961     0.001
   Fe(OH)4-              5.824e-014  5.290e-014   -13.235   -13.277    -0.042
   FeOH+2                1.366e-014  9.301e-015   -13.864   -14.031    -0.167
   Fe+3                  7.848e-019  3.651e-019   -18.105   -18.438    -0.332
   FeCl+2                8.904e-024  6.060e-024   -23.050   -23.218    -0.167
   Fe2(OH)2+4            2.083e-026  4.472e-027   -25.681   -26.350    -0.668
   FeCl2+                4.459e-029  4.050e-029   -28.351   -28.393    -0.042
   Fe3(OH)4+5            7.515e-034  6.787e-035   -33.124   -34.168    -1.044
   FeCl3                 3.665e-036  3.673e-036   -35.436   -35.435     0.001
H(0)            4.575e-016
   H2                    2.288e-016  2.292e-016   -15.641   -15.640     0.001
O(0)            0.000e+000
   O2                    0.000e+000  0.000e+000   -66.199   -66.198     0.001

------------------------------Saturation indices-------------------------------

	Phase               SI log IAP  log KT

	Aragonite        -0.19   -8.45   -8.26  CaCO3
	Calcite          -0.04   -8.45   -8.41  CaCO3
	CH4(g)          -23.81  -26.54   -2.73  CH4
	CO2(g)           -1.53   -2.80   -1.27  CO2
	Fe(OH)3(a)       -2.33    2.56    4.89  Fe(OH)3
	Goethite          3.00    2.56   -0.44  FeOOH
	H2(g)           -12.56  -15.64   -3.08  H2
	H2O(g)           -1.92   -0.00    1.92  H2O
	Hematite          7.93    5.12   -2.81  Fe2O3
	O2(g)           -63.43  -66.20   -2.77  O2
	Siderite          0.73  -10.07  -10.79  FeCO3

------------------
End of simulation.
------------------

------------------------------------
Reading input data for simulation 2.
------------------------------------

	 EXCHANGE 1-50
	  X    0.06
	  equilibrate 1
	 SURFACE  1-50
	  Hfo_w Goethite 0.2 5.3e4 # Coupled to Goethite, proportion, m2/mol
	  Hfo_s Goethite 1e-3      # Coupled to Goethite, proportion
	  equilibrate 1
	END
-------------------------------------------------------
Beginning of initial exchange-composition calculations.
-------------------------------------------------------

Exchange 1.	

X               6.000e-002 mol

	                               Equiv-    Equivalent      Log 
	Species             Moles      alents      Fraction     Gamma

	CaX2             2.964e-002  5.928e-002  9.880e-001    -0.162
	FeX2             3.608e-004  7.216e-004  1.203e-002    -0.159

------------------------------------------------------
Beginning of initial surface-composition calculations.
------------------------------------------------------

Surface 1.	

Hfo           
	 1.025e-004  Surface charge, eq
	 1.745e-002  sigma, C/m**2
	 6.113e-002  psi, V
	-2.505e+000  -F*psi/RT
	 8.164e-002  exp(-F*psi/RT)
	 5.300e+004  specific area, m**2/mol Goethite
	 5.671e+002  m**2 for  1.070e-002 moles of Goethite


Hfo_s         
	 1.070e-005  moles	[0.001 mol/(mol Goethite)]
	                                   Mole                     Log
	Species               Moles    Fraction    Molality    Molality

	Hfo_sOFe+        6.773e-006       0.633  6.773e-006      -5.169
	Hfo_sOHCa+2      1.911e-006       0.179  1.911e-006      -5.719
	Hfo_sOH          1.547e-006       0.145  1.547e-006      -5.810
	Hfo_sOH2+        2.463e-007       0.023  2.463e-007      -6.609
	Hfo_sO-          2.227e-007       0.021  2.227e-007      -6.652

Hfo_w         
	 2.140e-003  moles	[0.2 mol/(mol Goethite)]
	                                   Mole                     Log
	Species               Moles    Fraction    Molality    Molality

	Hfo_wOH          1.574e-003       0.735  1.574e-003      -2.803
	Hfo_wOH2+        2.505e-004       0.117  2.505e-004      -3.601
	Hfo_wO-          2.265e-004       0.106  2.265e-004      -3.645
	Hfo_wOFe+        6.429e-005       0.030  6.429e-005      -4.192
	Hfo_wOFeOH       2.119e-005       0.010  2.119e-005      -4.674
	Hfo_wOCa+        3.604e-006       0.002  3.604e-006      -5.443

------------------
End of simulation.
------------------

------------------------------------
Reading input data for simulation 3.
------------------------------------

	 PRINT
	  reset false
WARNING: Cell-lengths were read for 1 cells. Last value is used till cell 15.
WARNING: Dispersivities were read for 1 cells. Last value is used till cell 15.
