   Input file: deb1
  Output file: deb1.out
Database file: ../database/phreeqc.dat

------------------
Reading data base.
------------------

	SOLUTION_MASTER_SPECIES
	SOLUTION_SPECIES
	PHASES
	EXCHANGE_MASTER_SPECIES
	EXCHANGE_SPECIES
	SURFACE_MASTER_SPECIES
	SURFACE_SPECIES
	RATES
	END
------------------------------------
Reading input data for simulation 1.
------------------------------------

	DATABASE ../database/phreeqc.dat
	KNOBS
	 iterations 400
	SURFACE_MASTER_SPECIES
	 Su Su-
	SURFACE_SPECIES
	 Su- = Su-
	 log_k 0
	SOLUTION 0
	 water 1
	SOLUTION 1-10
	 pH 7.0
	 Na 1
	 Cl 1 charge
	 water 0.3
	SURFACE 1-10
	 Su 1e-3 1e4 1
	 equilibrate 1
	 donnan d 1 l 0.9 v 1# 1e-9
	END
-------------------------------------------
Beginning of initial solution calculations.
-------------------------------------------

Initial solution 0.	

-----------------------------Solution composition------------------------------

	Elements           Molality       Moles

	Pure water     

----------------------------Description of solution----------------------------

                                       pH  =   7.000    
                                       pe  =   4.000    
       Specific Conductance (uS/cm, 25 oC) = 0
                          Density (g/cm3)  =   0.99705
                        Activity of water  =   1.000
                           Ionic strength  =  1.001e-007
                       Mass of water (kg)  =  1.000e+000
                 Total alkalinity (eq/kg)  =  1.082e-010
                    Total carbon (mol/kg)  =  0.000e+000
                       Total CO2 (mol/kg)  =  0.000e+000
                      Temperature (deg C)  =  25.000
                  Electrical balance (eq)  = -1.082e-010
 Percent error, 100*(Cat-|An|)/(Cat+|An|)  =  -0.05
                               Iterations  =   0
                                  Total H  = 1.110124e+002
                                  Total O  = 5.550622e+001

----------------------------Distribution of species----------------------------

                                                   Log       Log         Log 
   Species                 Molality    Activity  Molality  Activity     Gamma

   OH-                   1.002e-007  1.001e-007    -6.999    -6.999    -0.000
   H+                    1.001e-007  1.000e-007    -7.000    -7.000    -0.000
   H2O                   5.551e+001  1.000e+000     1.744     0.000     0.000
H(0)            1.416e-025
   H2                    7.079e-026  7.079e-026   -25.150   -25.150     0.000
O(0)            0.000e+000
   O2                    0.000e+000  0.000e+000   -42.080   -42.080     0.000

------------------------------Saturation indices-------------------------------

	Phase               SI log IAP  log KT

	H2(g)           -22.00  -25.15   -3.15  H2
	H2O(g)           -1.51    0.00    1.51  H2O
	O2(g)           -39.19  -42.08   -2.89  O2

Initial solution 1.	

-----------------------------Solution composition------------------------------

	Elements           Molality       Moles

	Cl               1.000e-003  3.000e-004  Charge balance
	Na               1.000e-003  3.000e-004

----------------------------Description of solution----------------------------

                                       pH  =   7.000    
                                       pe  =   4.000    
       Specific Conductance (uS/cm, 25 oC) = 123
                          Density (g/cm3)  =   0.99709
                        Activity of water  =   1.000
                           Ionic strength  =  1.000e-003
                       Mass of water (kg)  =  3.000e-001
                 Total alkalinity (eq/kg)  =  3.658e-010
                    Total carbon (mol/kg)  =  0.000e+000
                       Total CO2 (mol/kg)  =  0.000e+000
                      Temperature (deg C)  =  25.000
                  Electrical balance (eq)  = -2.323e-012
 Percent error, 100*(Cat-|An|)/(Cat+|An|)  =  -0.00
                               Iterations  =   8
                                  Total H  = 3.330373e+001
                                  Total O  = 1.665187e+001

----------------------------Distribution of species----------------------------

                                                   Log       Log         Log 
   Species                 Molality    Activity  Molality  Activity     Gamma

   OH-                   1.038e-007  1.001e-007    -6.984    -7.000    -0.016
   H+                    1.034e-007  1.000e-007    -6.985    -7.000    -0.015
   H2O                   5.551e+001  1.000e+000     1.744    -0.000     0.000
Cl              1.000e-003
   Cl-                   1.000e-003  9.649e-004    -3.000    -3.016    -0.016
H(0)            1.416e-025
   H2                    7.078e-026  7.079e-026   -25.150   -25.150     0.000
Na              1.000e-003
   Na+                   1.000e-003  9.652e-004    -3.000    -3.015    -0.015
   NaOH                  6.375e-011  6.377e-011   -10.196   -10.195     0.000
O(0)            0.000e+000
   O2                    0.000e+000  0.000e+000   -42.080   -42.080     0.000

------------------------------Saturation indices-------------------------------

	Phase               SI log IAP  log KT

	H2(g)           -22.00  -25.15   -3.15  H2
	H2O(g)           -1.51   -0.00    1.51  H2O
	Halite           -7.61   -6.03    1.58  NaCl
	O2(g)           -39.19  -42.08   -2.89  O2

------------------------------------------------------
Beginning of initial surface-composition calculations.
------------------------------------------------------

Surface 1.	

Su            
	 2.222e-010  Surface + diffuse layer charge, eq
	-1.000e-003  Surface charge, eq
	-9.649e-003  sigma, C/m**2
	-8.649e-002  psi, V
	 3.367e+000  -F*psi/RT
	 2.898e+001  exp(-F*psi/RT)
	 1.000e+004  specific area, m**2/g
	 1.000e+004  m**2 for  1.000e+000 g

	Water in diffuse layer: 9.026e-002 kg, 100.0% of total DDL-water.
	Radius of total pore:   7.805e-008 m; of free pore: 6.843e-008 m.

	Total moles in diffuse layer (excluding water), Donnan calculation 

	Element       	     Moles
	Cl            	 8.0822e-006
	H             	 1.0512e-007
	Na            	 1.0080e-003
	O             	 8.4430e-010

Su            
	 1.000e-003  moles
	                                   Mole                     Log
	Species               Moles    Fraction    Molality    Molality

	Su-              1.000e-003       1.000  3.333e-003      -2.477

-----------------------------------------
Beginning of batch-reaction calculations.
-----------------------------------------

Reaction step 1.

Using solution 0.	
Using surface 1.	Surface assemblage after simulation 1.

------------------------------Surface composition------------------------------

Su            
	 2.299e-017  Surface + diffuse layer charge, eq
	-1.000e-003  Surface charge, eq
	-9.649e-003  sigma, C/m**2
	-1.887e-001  psi, V
	 7.345e+000  -F*psi/RT
	 1.548e+003  exp(-F*psi/RT)
	 1.000e+004  specific area, m**2/g
	 1.000e+004  m**2 for  1.000e+000 g

	Water in diffuse layer: 6.063e-001 kg, 100.0% of total DDL-water.
	Radius of total pore:   2.181e-007 m; of free pore: 1.453e-007 m.

	Total moles in diffuse layer (excluding water), Donnan calculation 

	Element       	     Moles
	Cl            	 1.0584e-007
	H             	 5.9052e-007
	Na            	 9.9953e-004
	O             	 6.3678e-009

Su            
	 1.000e-003  moles
	                                   Mole                     Log
	Species               Moles    Fraction    Molality    Molality

	Su-              1.000e-003       1.000  2.066e-003      -2.685

-----------------------------Solution composition------------------------------

	Elements           Molality       Moles

	Cl               1.648e-005  7.976e-006
	Na               1.746e-005  8.451e-006

----------------------------Description of solution----------------------------

                                       pH  =   7.993      Charge balance
                                       pe  =   9.887      Adjusted to redox equilibrium
       Specific Conductance (uS/cm, 25 oC) = 2
                          Density (g/cm3)  =   0.99705
                        Activity of water  =   1.000
                           Ionic strength  =  1.747e-005
                       Mass of water (kg)  =  4.840e-001
                 Total alkalinity (eq/kg)  =  9.804e-007
                    Total carbon (mol/kg)  =  0.000e+000
                       Total CO2 (mol/kg)  =  0.000e+000
                      Temperature (deg C)  =  25.000
                  Electrical balance (eq)  =  1.140e-010
 Percent error, 100*(Cat-|An|)/(Cat+|An|)  =   0.00
                               Iterations  =   3
                                  Total H  = 5.372690e+001
                                  Total O  = 2.686345e+001

----------------------------Distribution of species----------------------------

                                                   Log       Log         Log 
   Species                 Molality    Activity  Molality  Activity     Gamma

   OH-                   9.905e-007  9.857e-007    -6.004    -6.006    -0.002
   H+                    1.021e-008  1.016e-008    -7.991    -7.993    -0.002
   H2O                   1.250e+002  1.000e+000     2.097    -0.000     0.000
Cl              1.648e-005
   Cl-                   1.648e-005  1.640e-005    -4.783    -4.785    -0.002
H(0)            2.457e-039
   H2                    1.229e-039  1.229e-039   -38.911   -38.911     0.000
Na              1.746e-005
   Na+                   1.746e-005  1.738e-005    -4.758    -4.760    -0.002
   NaOH                  1.130e-011  1.130e-011   -10.947   -10.947     0.000
O(0)            5.523e-015
   O2                    2.761e-015  2.761e-015   -14.559   -14.559     0.000

------------------------------Saturation indices-------------------------------

	Phase               SI log IAP  log KT

	H2(g)           -35.76  -38.91   -3.15  H2
	H2O(g)           -1.51   -0.00    1.51  H2O
	Halite          -11.13   -9.55    1.58  NaCl
	O2(g)           -11.67  -14.56   -2.89  O2

------------------
End of simulation.
------------------

------------------------------------
Reading input data for simulation 2.
------------------------------------

	TRANSPORT
	 cells 10
	 length 1e-9
	 shifts 1 0
	 bcond 1 2
	 timest 1e-9
	 punch_frequency 1
	 multi_d true 1e-9 1#0.547723 0 1
	SELECTED_OUTPUT
WARNING: Cell-lengths were read for 1 cells. Last value is used till cell 10.
WARNING: No dispersivities were read; disp = 0 assumed.
	 file d1.prn
	 reset false
	USER_PUNCH
	 heading dist H2O_aq H2O_edl H2O_tot Na Ca Cl pH
	 start
	 10 punch dist, tot("water"), edl("water"), tot("water") + edl("water"), tot("Na")*1e3, tot("Ca")*1e3, tot("Cl")*1e3 , -la("H+")
	 end
	END
------------------------------------
Beginning of transport calculations.
------------------------------------

-------------------------------
Equilibrating initial solutions
-------------------------------

WARNING: Mass of water is less than 1e-10 kilogram.
The aqueous phase may not be stable relative to given masses of minerals.
WARNING: Numerical method failed with this set of convergence parameters.

WARNING: Trying smaller step size, pe step size 10, 5 ... 

Using solution 1.	
Using surface 1.	Surface assemblage after simulation 1.

------------------------------Surface composition------------------------------

Su            
	-8.544e-012  Surface + diffuse layer charge, eq
	-1.000e-003  Surface charge, eq
	-9.649e-003  sigma, C/m**2
	-8.649e-002  psi, V
	 3.367e+000  -F*psi/RT
	 2.898e+001  exp(-F*psi/RT)
	 1.000e+004  specific area, m**2/g
	 1.000e+004  m**2 for  1.000e+000 g

	Water in diffuse layer: 9.026e-002 kg, 100.0% of total DDL-water.
	Radius of total pore:   7.805e-008 m; of free pore: 6.843e-008 m.

	Total moles in diffuse layer (excluding water), Donnan calculation 

	Element       	     Moles
	Cl            	 8.0822e-006
	H             	 1.0512e-007
	Na            	 1.0080e-003
	O             	 8.4430e-010

Su            
	 1.000e-003  moles
	                                   Mole                     Log
	Species               Moles    Fraction    Molality    Molality

	Su-              1.000e-003       1.000  3.333e-003      -2.477

-----------------------------Solution composition------------------------------

	Elements           Molality       Moles

	Cl               1.000e-003  3.000e-004
	Na               1.000e-003  3.000e-004

----------------------------Description of solution----------------------------

                                       pH  =   7.000      Charge balance
                                       pe  =  10.515      Adjusted to redox equilibrium
       Specific Conductance (uS/cm, 25 oC) = 123
                          Density (g/cm3)  =   0.99709
                        Activity of water  =   1.000
                           Ionic strength  =  1.000e-003
                       Mass of water (kg)  =  3.000e-001
                 Total alkalinity (eq/kg)  =  3.657e-010
                    Total carbon (mol/kg)  =  0.000e+000
                       Total CO2 (mol/kg)  =  0.000e+000
                      Temperature (deg C)  =  25.000
                  Electrical balance (eq)  =  2.198e-010
 Percent error, 100*(Cat-|An|)/(Cat+|An|)  =   0.00
                               Iterations  =   2
                                  Total H  = 3.330373e+001
                                  Total O  = 1.665187e+001

----------------------------Distribution of species----------------------------

                                                   Log       Log         Log 
   Species                 Molality    Activity  Molality  Activity     Gamma

   OH-                   1.038e-007  1.001e-007    -6.984    -7.000    -0.016
   H+                    1.034e-007  1.000e-007    -6.985    -7.000    -0.015
   H2O                   7.221e+001  1.000e+000     1.859    -0.000     0.000
Cl              1.000e-003
   Cl-                   1.000e-003  9.649e-004    -3.000    -3.016    -0.016
H(0)            1.324e-038
   H2                    6.618e-039  6.620e-039   -38.179   -38.179     0.000
Na              1.000e-003
   Na+                   1.000e-003  9.652e-004    -3.000    -3.015    -0.015
   NaOH                  6.375e-011  6.377e-011   -10.196   -10.195     0.000
O(0)            1.902e-016
   O2                    9.510e-017  9.512e-017   -16.022   -16.022     0.000

------------------------------Saturation indices-------------------------------

	Phase               SI log IAP  log KT

	H2(g)           -35.03  -38.18   -3.15  H2
	H2O(g)           -1.51   -0.00    1.51  H2O
	Halite           -7.61   -6.03    1.58  NaCl
	O2(g)           -13.13  -16.02   -2.89  O2

Using solution 2.	
Using surface 2.	Surface defined in simulation 1.

------------------------------Surface composition------------------------------

Su            
	 3.550e-015  Surface + diffuse layer charge, eq
	-1.000e-003  Surface charge, eq
	-9.649e-003  sigma, C/m**2
	-8.649e-002  psi, V
	 3.367e+000  -F*psi/RT
	 2.898e+001  exp(-F*psi/RT)
	 1.000e+004  specific area, m**2/g
	 1.000e+004  m**2 for  1.000e+000 g

	Water in diffuse layer: 9.026e-002 kg, 100.0% of total DDL-water.
	Radius of total pore:   7.805e-008 m; of free pore: 6.843e-008 m.

	Total moles in diffuse layer (excluding water), Donnan calculation 

	Element       	     Moles
	Cl            	 8.0822e-006
	H             	 1.0512e-007
	Na            	 1.0080e-003
	O             	 8.4430e-010

Su            
	 1.000e-003  moles
	                                   Mole                     Log
	Species               Moles    Fraction    Molality    Molality

	Su-              1.000e-003       1.000  3.333e-003      -2.477

-----------------------------Solution composition------------------------------

	Elements           Molality       Moles

	Cl               1.000e-003  3.000e-004
	Na               1.000e-003  3.000e-004

----------------------------Description of solution----------------------------

                                       pH  =   7.000      Charge balance
                                       pe  =  10.547      Adjusted to redox equilibrium
       Specific Conductance (uS/cm, 25 oC) = 123
                          Density (g/cm3)  =   0.99709
                        Activity of water  =   1.000
                           Ionic strength  =  1.000e-003
                       Mass of water (kg)  =  3.000e-001
                 Total alkalinity (eq/kg)  =  3.657e-010
                    Total carbon (mol/kg)  =  0.000e+000
                       Total CO2 (mol/kg)  =  0.000e+000
                      Temperature (deg C)  =  25.000
                  Electrical balance (eq)  =  2.198e-010
 Percent error, 100*(Cat-|An|)/(Cat+|An|)  =   0.00
                               Iterations  =   0
                                  Total H  = 3.330373e+001
                                  Total O  = 1.665187e+001

----------------------------Distribution of species----------------------------

                                                   Log       Log         Log 
   Species                 Molality    Activity  Molality  Activity     Gamma

   OH-                   1.038e-007  1.001e-007    -6.984    -7.000    -0.016
   H+                    1.034e-007  1.000e-007    -6.985    -7.000    -0.015
   H2O                   7.221e+001  1.000e+000     1.859    -0.000     0.000
Cl              1.000e-003
   Cl-                   1.000e-003  9.649e-004    -3.000    -3.016    -0.016
H(0)            1.141e-038
   H2                    5.707e-039  5.708e-039   -38.244   -38.244     0.000
Na              1.000e-003
   Na+                   1.000e-003  9.652e-004    -3.000    -3.015    -0.015
   NaOH                  6.375e-011  6.377e-011   -10.196   -10.195     0.000
O(0)            2.558e-016
   O2                    1.279e-016  1.279e-016   -15.893   -15.893     0.000

------------------------------Saturation indices-------------------------------

	Phase               SI log IAP  log KT

	H2(g)           -35.09  -38.24   -3.15  H2
	H2O(g)           -1.51   -0.00    1.51  H2O
	Halite           -7.61   -6.03    1.58  NaCl
	O2(g)           -13.00  -15.89   -2.89  O2

Using solution 3.	
Using surface 3.	Surface defined in simulation 1.

------------------------------Surface composition------------------------------

Su            
	-2.123e-016  Surface + diffuse layer charge, eq
	-1.000e-003  Surface charge, eq
	-9.649e-003  sigma, C/m**2
	-8.649e-002  psi, V
	 3.367e+000  -F*psi/RT
	 2.898e+001  exp(-F*psi/RT)
	 1.000e+004  specific area, m**2/g
	 1.000e+004  m**2 for  1.000e+000 g

	Water in diffuse layer: 9.026e-002 kg, 100.0% of total DDL-water.
	Radius of total pore:   7.805e-008 m; of free pore: 6.843e-008 m.

	Total moles in diffuse layer (excluding water), Donnan calculation 

	Element       	     Moles
	Cl            	 8.0822e-006
	H             	 1.0512e-007
	Na            	 1.0080e-003
	O             	 8.4430e-010

Su            
	 1.000e-003  moles
	                                   Mole                     Log
	Species               Moles    Fraction    Molality    Molality

	Su-              1.000e-003       1.000  3.333e-003      -2.477

-----------------------------Solution composition------------------------------

	Elements           Molality       Moles

	Cl               1.000e-003  3.000e-004
	Na               1.000e-003  3.000e-004

----------------------------Description of solution----------------------------

                                       pH  =   7.000      Charge balance
                                       pe  =  10.515      Adjusted to redox equilibrium
       Specific Conductance (uS/cm, 25 oC) = 123
                          Density (g/cm3)  =   0.99709
                        Activity of water  =   1.000
                           Ionic strength  =  1.000e-003
                       Mass of water (kg)  =  3.000e-001
                 Total alkalinity (eq/kg)  =  3.657e-010
                    Total carbon (mol/kg)  =  0.000e+000
                       Total CO2 (mol/kg)  =  0.000e+000
                      Temperature (deg C)  =  25.000
                  Electrical balance (eq)  =  2.198e-010
 Percent error, 100*(Cat-|An|)/(Cat+|An|)  =   0.00
                               Iterations  =   3
                                  Total H  = 3.330373e+001
                                  Total O  = 1.665187e+001

----------------------------Distribution of species----------------------------

                                                   Log       Log         Log 
   Species                 Molality    Activity  Molality  Activity     Gamma

   OH-                   1.038e-007  1.001e-007    -6.984    -7.000    -0.016
   H+                    1.034e-007  1.000e-007    -6.985    -7.000    -0.015
   H2O                   7.221e+001  1.000e+000     1.859    -0.000     0.000
Cl              1.000e-003
   Cl-                   1.000e-003  9.649e-004    -3.000    -3.016    -0.016
H(0)            1.323e-038
   H2                    6.617e-039  6.618e-039   -38.179   -38.179     0.000
Na              1.000e-003
   Na+                   1.000e-003  9.652e-004    -3.000    -3.015    -0.015
   NaOH                  6.375e-011  6.377e-011   -10.196   -10.195     0.000
O(0)            1.903e-016
   O2                    9.514e-017  9.516e-017   -16.022   -16.022     0.000

------------------------------Saturation indices-------------------------------

	Phase               SI log IAP  log KT

	H2(g)           -35.03  -38.18   -3.15  H2
	H2O(g)           -1.51   -0.00    1.51  H2O
	Halite           -7.61   -6.03    1.58  NaCl
	O2(g)           -13.13  -16.02   -2.89  O2

Using solution 4.	
Using surface 4.	Surface defined in simulation 1.

------------------------------Surface composition------------------------------

Su            
	-2.123e-016  Surface + diffuse layer charge, eq
	-1.000e-003  Surface charge, eq
	-9.649e-003  sigma, C/m**2
	-8.649e-002  psi, V
	 3.367e+000  -F*psi/RT
	 2.898e+001  exp(-F*psi/RT)
	 1.000e+004  specific area, m**2/g
	 1.000e+004  m**2 for  1.000e+000 g

	Water in diffuse layer: 9.026e-002 kg, 100.0% of total DDL-water.
	Radius of total pore:   7.805e-008 m; of free pore: 6.843e-008 m.

	Total moles in diffuse layer (excluding water), Donnan calculation 

	Element       	     Moles
	Cl            	 8.0822e-006
	H             	 1.0512e-007
	Na            	 1.0080e-003
	O             	 8.4430e-010

Su            
	 1.000e-003  moles
	                                   Mole                     Log
	Species               Moles    Fraction    Molality    Molality

	Su-              1.000e-003       1.000  3.333e-003      -2.477

-----------------------------Solution composition------------------------------

	Elements           Molality       Moles

	Cl               1.000e-003  3.000e-004
	Na               1.000e-003  3.000e-004

----------------------------Description of solution----------------------------

                                       pH  =   7.000      Charge balance
                                       pe  =  10.515      Adjusted to redox equilibrium
       Specific Conductance (uS/cm, 25 oC) = 123
                          Density (g/cm3)  =   0.99709
                        Activity of water  =   1.000
                           Ionic strength  =  1.000e-003
                       Mass of water (kg)  =  3.000e-001
                 Total alkalinity (eq/kg)  =  3.657e-010
                    Total carbon (mol/kg)  =  0.000e+000
                       Total CO2 (mol/kg)  =  0.000e+000
                      Temperature (deg C)  =  25.000
                  Electrical balance (eq)  =  2.198e-010
 Percent error, 100*(Cat-|An|)/(Cat+|An|)  =   0.00
                               Iterations  =   3
                                  Total H  = 3.330373e+001
                                  Total O  = 1.665187e+001

----------------------------Distribution of species----------------------------

                                                   Log       Log         Log 
   Species                 Molality    Activity  Molality  Activity     Gamma

   OH-                   1.038e-007  1.001e-007    -6.984    -7.000    -0.016
   H+                    1.034e-007  1.000e-007    -6.985    -7.000    -0.015
   H2O                   7.221e+001  1.000e+000     1.859    -0.000     0.000
Cl              1.000e-003
   Cl-                   1.000e-003  9.649e-004    -3.000    -3.016    -0.016
H(0)            1.323e-038
   H2                    6.617e-039  6.618e-039   -38.179   -38.179     0.000
Na              1.000e-003
   Na+                   1.000e-003  9.652e-004    -3.000    -3.015    -0.015
   NaOH                  6.375e-011  6.377e-011   -10.196   -10.195     0.000
O(0)            1.903e-016
   O2                    9.514e-017  9.516e-017   -16.022   -16.022     0.000

------------------------------Saturation indices-------------------------------

	Phase               SI log IAP  log KT

	H2(g)           -35.03  -38.18   -3.15  H2
	H2O(g)           -1.51   -0.00    1.51  H2O
	Halite           -7.61   -6.03    1.58  NaCl
	O2(g)           -13.13  -16.02   -2.89  O2

Using solution 5.	
Using surface 5.	Surface defined in simulation 1.

------------------------------Surface composition------------------------------

Su            
	-2.123e-016  Surface + diffuse layer charge, eq
	-1.000e-003  Surface charge, eq
	-9.649e-003  sigma, C/m**2
	-8.649e-002  psi, V
	 3.367e+000  -F*psi/RT
	 2.898e+001  exp(-F*psi/RT)
	 1.000e+004  specific area, m**2/g
	 1.000e+004  m**2 for  1.000e+000 g

	Water in diffuse layer: 9.026e-002 kg, 100.0% of total DDL-water.
	Radius of total pore:   7.805e-008 m; of free pore: 6.843e-008 m.

	Total moles in diffuse layer (excluding water), Donnan calculation 

	Element       	     Moles
	Cl            	 8.0822e-006
	H             	 1.0512e-007
	Na            	 1.0080e-003
	O             	 8.4430e-010

Su            
	 1.000e-003  moles
	                                   Mole                     Log
	Species               Moles    Fraction    Molality    Molality

	Su-              1.000e-003       1.000  3.333e-003      -2.477

-----------------------------Solution composition------------------------------

	Elements           Molality       Moles

	Cl               1.000e-003  3.000e-004
	Na               1.000e-003  3.000e-004

----------------------------Description of solution----------------------------

                                       pH  =   7.000      Charge balance
                                       pe  =  10.515      Adjusted to redox equilibrium
       Specific Conductance (uS/cm, 25 oC) = 123
                          Density (g/cm3)  =   0.99709
                        Activity of water  =   1.000
                           Ionic strength  =  1.000e-003
                       Mass of water (kg)  =  3.000e-001
                 Total alkalinity (eq/kg)  =  3.657e-010
                    Total carbon (mol/kg)  =  0.000e+000
                       Total CO2 (mol/kg)  =  0.000e+000
                      Temperature (deg C)  =  25.000
                  Electrical balance (eq)  =  2.198e-010
 Percent error, 100*(Cat-|An|)/(Cat+|An|)  =   0.00
                               Iterations  =   3
                                  Total H  = 3.330373e+001
                                  Total O  = 1.665187e+001

----------------------------Distribution of species----------------------------

                                                   Log       Log         Log 
   Species                 Molality    Activity  Molality  Activity     Gamma

   OH-                   1.038e-007  1.001e-007    -6.984    -7.000    -0.016
   H+                    1.034e-007  1.000e-007    -6.985    -7.000    -0.015
   H2O                   7.221e+001  1.000e+000     1.859    -0.000     0.000
Cl              1.000e-003
   Cl-                   1.000e-003  9.649e-004    -3.000    -3.016    -0.016
H(0)            1.323e-038
   H2                    6.617e-039  6.618e-039   -38.179   -38.179     0.000
Na              1.000e-003
   Na+                   1.000e-003  9.652e-004    -3.000    -3.015    -0.015
   NaOH                  6.375e-011  6.377e-011   -10.196   -10.195     0.000
O(0)            1.903e-016
   O2                    9.514e-017  9.516e-017   -16.022   -16.022     0.000

------------------------------Saturation indices-------------------------------

	Phase               SI log IAP  log KT

	H2(g)           -35.03  -38.18   -3.15  H2
	H2O(g)           -1.51   -0.00    1.51  H2O
	Halite           -7.61   -6.03    1.58  NaCl
	O2(g)           -13.13  -16.02   -2.89  O2

Using solution 6.	
Using surface 6.	Surface defined in simulation 1.

------------------------------Surface composition------------------------------

Su            
	-2.123e-016  Surface + diffuse layer charge, eq
	-1.000e-003  Surface charge, eq
	-9.649e-003  sigma, C/m**2
	-8.649e-002  psi, V
	 3.367e+000  -F*psi/RT
	 2.898e+001  exp(-F*psi/RT)
	 1.000e+004  specific area, m**2/g
	 1.000e+004  m**2 for  1.000e+000 g

	Water in diffuse layer: 9.026e-002 kg, 100.0% of total DDL-water.
	Radius of total pore:   7.805e-008 m; of free pore: 6.843e-008 m.

	Total moles in diffuse layer (excluding water), Donnan calculation 

	Element       	     Moles
	Cl            	 8.0822e-006
	H             	 1.0512e-007
	Na            	 1.0080e-003
	O             	 8.4430e-010

Su            
	 1.000e-003  moles
	                                   Mole                     Log
	Species               Moles    Fraction    Molality    Molality

	Su-              1.000e-003       1.000  3.333e-003      -2.477

-----------------------------Solution composition------------------------------

	Elements           Molality       Moles

	Cl               1.000e-003  3.000e-004
	Na               1.000e-003  3.000e-004

----------------------------Description of solution----------------------------

                                       pH  =   7.000      Charge balance
                                       pe  =  10.515      Adjusted to redox equilibrium
       Specific Conductance (uS/cm, 25 oC) = 123
                          Density (g/cm3)  =   0.99709
                        Activity of water  =   1.000
                           Ionic strength  =  1.000e-003
                       Mass of water (kg)  =  3.000e-001
                 Total alkalinity (eq/kg)  =  3.657e-010
                    Total carbon (mol/kg)  =  0.000e+000
                       Total CO2 (mol/kg)  =  0.000e+000
                      Temperature (deg C)  =  25.000
                  Electrical balance (eq)  =  2.198e-010
 Percent error, 100*(Cat-|An|)/(Cat+|An|)  =   0.00
                               Iterations  =   3
                                  Total H  = 3.330373e+001
                                  Total O  = 1.665187e+001

----------------------------Distribution of species----------------------------

                                                   Log       Log         Log 
   Species                 Molality    Activity  Molality  Activity     Gamma

   OH-                   1.038e-007  1.001e-007    -6.984    -7.000    -0.016
   H+                    1.034e-007  1.000e-007    -6.985    -7.000    -0.015
   H2O                   7.221e+001  1.000e+000     1.859    -0.000     0.000
Cl              1.000e-003
   Cl-                   1.000e-003  9.649e-004    -3.000    -3.016    -0.016
H(0)            1.323e-038
   H2                    6.617e-039  6.618e-039   -38.179   -38.179     0.000
Na              1.000e-003
   Na+                   1.000e-003  9.652e-004    -3.000    -3.015    -0.015
   NaOH                  6.375e-011  6.377e-011   -10.196   -10.195     0.000
O(0)            1.903e-016
   O2                    9.514e-017  9.516e-017   -16.022   -16.022     0.000

------------------------------Saturation indices-------------------------------

	Phase               SI log IAP  log KT

	H2(g)           -35.03  -38.18   -3.15  H2
	H2O(g)           -1.51   -0.00    1.51  H2O
	Halite           -7.61   -6.03    1.58  NaCl
	O2(g)           -13.13  -16.02   -2.89  O2

Using solution 7.	
Using surface 7.	Surface defined in simulation 1.

------------------------------Surface composition------------------------------

Su            
	-2.123e-016  Surface + diffuse layer charge, eq
	-1.000e-003  Surface charge, eq
	-9.649e-003  sigma, C/m**2
	-8.649e-002  psi, V
	 3.367e+000  -F*psi/RT
	 2.898e+001  exp(-F*psi/RT)
	 1.000e+004  specific area, m**2/g
	 1.000e+004  m**2 for  1.000e+000 g

	Water in diffuse layer: 9.026e-002 kg, 100.0% of total DDL-water.
	Radius of total pore:   7.805e-008 m; of free pore: 6.843e-008 m.

	Total moles in diffuse layer (excluding water), Donnan calculation 

	Element       	     Moles
	Cl            	 8.0822e-006
	H             	 1.0512e-007
	Na            	 1.0080e-003
	O             	 8.4430e-010

Su            
	 1.000e-003  moles
	                                   Mole                     Log
	Species               Moles    Fraction    Molality    Molality

	Su-              1.000e-003       1.000  3.333e-003      -2.477

-----------------------------Solution composition------------------------------

	Elements           Molality       Moles

	Cl               1.000e-003  3.000e-004
	Na               1.000e-003  3.000e-004

----------------------------Description of solution----------------------------

                                       pH  =   7.000      Charge balance
                                       pe  =  10.515      Adjusted to redox equilibrium
       Specific Conductance (uS/cm, 25 oC) = 123
                          Density (g/cm3)  =   0.99709
                        Activity of water  =   1.000
                           Ionic strength  =  1.000e-003
                       Mass of water (kg)  =  3.000e-001
                 Total alkalinity (eq/kg)  =  3.657e-010
                    Total carbon (mol/kg)  =  0.000e+000
                       Total CO2 (mol/kg)  =  0.000e+000
                      Temperature (deg C)  =  25.000
                  Electrical balance (eq)  =  2.198e-010
 Percent error, 100*(Cat-|An|)/(Cat+|An|)  =   0.00
                               Iterations  =   3
                                  Total H  = 3.330373e+001
                                  Total O  = 1.665187e+001

----------------------------Distribution of species----------------------------

                                                   Log       Log         Log 
   Species                 Molality    Activity  Molality  Activity     Gamma

   OH-                   1.038e-007  1.001e-007    -6.984    -7.000    -0.016
   H+                    1.034e-007  1.000e-007    -6.985    -7.000    -0.015
   H2O                   7.221e+001  1.000e+000     1.859    -0.000     0.000
Cl              1.000e-003
   Cl-                   1.000e-003  9.649e-004    -3.000    -3.016    -0.016
H(0)            1.323e-038
   H2                    6.617e-039  6.618e-039   -38.179   -38.179     0.000
Na              1.000e-003
   Na+                   1.000e-003  9.652e-004    -3.000    -3.015    -0.015
   NaOH                  6.375e-011  6.377e-011   -10.196   -10.195     0.000
O(0)            1.903e-016
   O2                    9.514e-017  9.516e-017   -16.022   -16.022     0.000

------------------------------Saturation indices-------------------------------

	Phase               SI log IAP  log KT

	H2(g)           -35.03  -38.18   -3.15  H2
	H2O(g)           -1.51   -0.00    1.51  H2O
	Halite           -7.61   -6.03    1.58  NaCl
	O2(g)           -13.13  -16.02   -2.89  O2

Using solution 8.	
Using surface 8.	Surface defined in simulation 1.

------------------------------Surface composition------------------------------

Su            
	-2.123e-016  Surface + diffuse layer charge, eq
	-1.000e-003  Surface charge, eq
	-9.649e-003  sigma, C/m**2
	-8.649e-002  psi, V
	 3.367e+000  -F*psi/RT
	 2.898e+001  exp(-F*psi/RT)
	 1.000e+004  specific area, m**2/g
	 1.000e+004  m**2 for  1.000e+000 g

	Water in diffuse layer: 9.026e-002 kg, 100.0% of total DDL-water.
	Radius of total pore:   7.805e-008 m; of free pore: 6.843e-008 m.

	Total moles in diffuse layer (excluding water), Donnan calculation 

	Element       	     Moles
	Cl            	 8.0822e-006
	H             	 1.0512e-007
	Na            	 1.0080e-003
	O             	 8.4430e-010

Su            
	 1.000e-003  moles
	                                   Mole                     Log
	Species               Moles    Fraction    Molality    Molality

	Su-              1.000e-003       1.000  3.333e-003      -2.477

-----------------------------Solution composition------------------------------

	Elements           Molality       Moles

	Cl               1.000e-003  3.000e-004
	Na               1.000e-003  3.000e-004

----------------------------Description of solution----------------------------

                                       pH  =   7.000      Charge balance
                                       pe  =  10.515      Adjusted to redox equilibrium
       Specific Conductance (uS/cm, 25 oC) = 123
                          Density (g/cm3)  =   0.99709
                        Activity of water  =   1.000
                           Ionic strength  =  1.000e-003
                       Mass of water (kg)  =  3.000e-001
                 Total alkalinity (eq/kg)  =  3.657e-010
                    Total carbon (mol/kg)  =  0.000e+000
                       Total CO2 (mol/kg)  =  0.000e+000
                      Temperature (deg C)  =  25.000
                  Electrical balance (eq)  =  2.198e-010
 Percent error, 100*(Cat-|An|)/(Cat+|An|)  =   0.00
                               Iterations  =   3
                                  Total H  = 3.330373e+001
                                  Total O  = 1.665187e+001

----------------------------Distribution of species----------------------------

                                                   Log       Log         Log 
   Species                 Molality    Activity  Molality  Activity     Gamma

   OH-                   1.038e-007  1.001e-007    -6.984    -7.000    -0.016
   H+                    1.034e-007  1.000e-007    -6.985    -7.000    -0.015
   H2O                   7.221e+001  1.000e+000     1.859    -0.000     0.000
Cl              1.000e-003
   Cl-                   1.000e-003  9.649e-004    -3.000    -3.016    -0.016
H(0)            1.323e-038
   H2                    6.617e-039  6.618e-039   -38.179   -38.179     0.000
Na              1.000e-003
   Na+                   1.000e-003  9.652e-004    -3.000    -3.015    -0.015
   NaOH                  6.375e-011  6.377e-011   -10.196   -10.195     0.000
O(0)            1.903e-016
   O2                    9.514e-017  9.516e-017   -16.022   -16.022     0.000

------------------------------Saturation indices-------------------------------

	Phase               SI log IAP  log KT

	H2(g)           -35.03  -38.18   -3.15  H2
	H2O(g)           -1.51   -0.00    1.51  H2O
	Halite           -7.61   -6.03    1.58  NaCl
	O2(g)           -13.13  -16.02   -2.89  O2

Using solution 9.	
Using surface 9.	Surface defined in simulation 1.

------------------------------Surface composition------------------------------

Su            
	-2.123e-016  Surface + diffuse layer charge, eq
	-1.000e-003  Surface charge, eq
	-9.649e-003  sigma, C/m**2
	-8.649e-002  psi, V
	 3.367e+000  -F*psi/RT
	 2.898e+001  exp(-F*psi/RT)
	 1.000e+004  specific area, m**2/g
	 1.000e+004  m**2 for  1.000e+000 g

	Water in diffuse layer: 9.026e-002 kg, 100.0% of total DDL-water.
	Radius of total pore:   7.805e-008 m; of free pore: 6.843e-008 m.

	Total moles in diffuse layer (excluding water), Donnan calculation 

	Element       	     Moles
	Cl            	 8.0822e-006
	H             	 1.0512e-007
	Na            	 1.0080e-003
	O             	 8.4430e-010

Su            
	 1.000e-003  moles
	                                   Mole                     Log
	Species               Moles    Fraction    Molality    Molality

	Su-              1.000e-003       1.000  3.333e-003      -2.477

-----------------------------Solution composition------------------------------

	Elements           Molality       Moles

	Cl               1.000e-003  3.000e-004
	Na               1.000e-003  3.000e-004

----------------------------Description of solution----------------------------

                                       pH  =   7.000      Charge balance
                                       pe  =  10.515      Adjusted to redox equilibrium
       Specific Conductance (uS/cm, 25 oC) = 123
                          Density (g/cm3)  =   0.99709
                        Activity of water  =   1.000
                           Ionic strength  =  1.000e-003
                       Mass of water (kg)  =  3.000e-001
                 Total alkalinity (eq/kg)  =  3.657e-010
                    Total carbon (mol/kg)  =  0.000e+000
                       Total CO2 (mol/kg)  =  0.000e+000
                      Temperature (deg C)  =  25.000
                  Electrical balance (eq)  =  2.198e-010
 Percent error, 100*(Cat-|An|)/(Cat+|An|)  =   0.00
                               Iterations  =   3
                                  Total H  = 3.330373e+001
                                  Total O  = 1.665187e+001

----------------------------Distribution of species----------------------------

                                                   Log       Log         Log 
   Species                 Molality    Activity  Molality  Activity     Gamma

   OH-                   1.038e-007  1.001e-007    -6.984    -7.000    -0.016
   H+                    1.034e-007  1.000e-007    -6.985    -7.000    -0.015
   H2O                   7.221e+001  1.000e+000     1.859    -0.000     0.000
Cl              1.000e-003
   Cl-                   1.000e-003  9.649e-004    -3.000    -3.016    -0.016
H(0)            1.323e-038
   H2                    6.617e-039  6.618e-039   -38.179   -38.179     0.000
Na              1.000e-003
   Na+                   1.000e-003  9.652e-004    -3.000    -3.015    -0.015
   NaOH                  6.375e-011  6.377e-011   -10.196   -10.195     0.000
O(0)            1.903e-016
   O2                    9.514e-017  9.516e-017   -16.022   -16.022     0.000

------------------------------Saturation indices-------------------------------

	Phase               SI log IAP  log KT

	H2(g)           -35.03  -38.18   -3.15  H2
	H2O(g)           -1.51   -0.00    1.51  H2O
	Halite           -7.61   -6.03    1.58  NaCl
	O2(g)           -13.13  -16.02   -2.89  O2

Using solution 10.	
Using surface 10.	Surface defined in simulation 1.

------------------------------Surface composition------------------------------

Su            
	-2.123e-016  Surface + diffuse layer charge, eq
	-1.000e-003  Surface charge, eq
	-9.649e-003  sigma, C/m**2
	-8.649e-002  psi, V
	 3.367e+000  -F*psi/RT
	 2.898e+001  exp(-F*psi/RT)
	 1.000e+004  specific area, m**2/g
	 1.000e+004  m**2 for  1.000e+000 g

	Water in diffuse layer: 9.026e-002 kg, 100.0% of total DDL-water.
	Radius of total pore:   7.805e-008 m; of free pore: 6.843e-008 m.

	Total moles in diffuse layer (excluding water), Donnan calculation 

	Element       	     Moles
	Cl            	 8.0822e-006
	H             	 1.0512e-007
	Na            	 1.0080e-003
	O             	 8.4430e-010

Su            
	 1.000e-003  moles
	                                   Mole                     Log
	Species               Moles    Fraction    Molality    Molality

	Su-              1.000e-003       1.000  3.333e-003      -2.477

-----------------------------Solution composition------------------------------

	Elements           Molality       Moles

	Cl               1.000e-003  3.000e-004
	Na               1.000e-003  3.000e-004

----------------------------Description of solution----------------------------

                                       pH  =   7.000      Charge balance
                                       pe  =  10.515      Adjusted to redox equilibrium
       Specific Conductance (uS/cm, 25 oC) = 123
                          Density (g/cm3)  =   0.99709
                        Activity of water  =   1.000
                           Ionic strength  =  1.000e-003
                       Mass of water (kg)  =  3.000e-001
                 Total alkalinity (eq/kg)  =  3.657e-010
                    Total carbon (mol/kg)  =  0.000e+000
                       Total CO2 (mol/kg)  =  0.000e+000
                      Temperature (deg C)  =  25.000
                  Electrical balance (eq)  =  2.198e-010
 Percent error, 100*(Cat-|An|)/(Cat+|An|)  =   0.00
                               Iterations  =   3
                                  Total H  = 3.330373e+001
                                  Total O  = 1.665187e+001

----------------------------Distribution of species----------------------------

                                                   Log       Log         Log 
   Species                 Molality    Activity  Molality  Activity     Gamma

   OH-                   1.038e-007  1.001e-007    -6.984    -7.000    -0.016
   H+                    1.034e-007  1.000e-007    -6.985    -7.000    -0.015
   H2O                   7.221e+001  1.000e+000     1.859    -0.000     0.000
Cl              1.000e-003
   Cl-                   1.000e-003  9.649e-004    -3.000    -3.016    -0.016
H(0)            1.323e-038
   H2                    6.617e-039  6.618e-039   -38.179   -38.179     0.000
Na              1.000e-003
   Na+                   1.000e-003  9.652e-004    -3.000    -3.015    -0.015
   NaOH                  6.375e-011  6.377e-011   -10.196   -10.195     0.000
O(0)            1.903e-016
   O2                    9.514e-017  9.516e-017   -16.022   -16.022     0.000

------------------------------Saturation indices-------------------------------

	Phase               SI log IAP  log KT

	H2(g)           -35.03  -38.18   -3.15  H2
	H2O(g)           -1.51   -0.00    1.51  H2O
	Halite           -7.61   -6.03    1.58  NaCl
	O2(g)           -13.13  -16.02   -2.89  O2

Transport step   1. Multicomponent diffusion run   1.

Transport step   1. Multicomponent diffusion run   2.

Transport step   1. Multicomponent diffusion run   3.

Transport step   1. Multicomponent diffusion run   4.

Transport step   1. Multicomponent diffusion run   5.

Transport step   1. Multicomponent diffusion run   6.

Transport step   1. Multicomponent diffusion run   7.

Transport step   1. Multicomponent diffusion run   8.

Transport step   1. Multicomponent diffusion run   9.

Transport step   1. Multicomponent diffusion run  10.

Transport step   1. Multicomponent diffusion run  11.

Transport step   1. Multicomponent diffusion run  12.

Transport step   1. Multicomponent diffusion run  13.

Transport step   1. Multicomponent diffusion run  14.

Transport step   1. Multicomponent diffusion run  15.

Transport step   1. Multicomponent diffusion run  16.

Transport step   1. Multicomponent diffusion run  17.

Transport step   1. Multicomponent diffusion run  18.

Transport step   1. Multicomponent diffusion run  19.

Transport step   1. Multicomponent diffusion run  20.

Transport step   1. Multicomponent diffusion run  21.

Transport step   1. Multicomponent diffusion run  22.

Transport step   1. Multicomponent diffusion run  23.

Transport step   1. Multicomponent diffusion run  24.

Transport step   1. Multicomponent diffusion run  25.

Transport step   1. Multicomponent diffusion run  26.

Transport step   1. Multicomponent diffusion run  27.

Transport step   1. Multicomponent diffusion run  28.

Transport step   1. Multicomponent diffusion run  29.

Transport step   1. Multicomponent diffusion run  30.

Transport step   1. Multicomponent diffusion run  31.

Transport step   1. Multicomponent diffusion run  32.

Transport step   1. Multicomponent diffusion run  33.

Transport step   1. Multicomponent diffusion run  34.

Transport step   1. Multicomponent diffusion run  35.

Transport step   1. Multicomponent diffusion run  36.

Transport step   1. Multicomponent diffusion run  37.

Transport step   1. Multicomponent diffusion run  38.

Transport step   1. Multicomponent diffusion run  39.

Transport step   1. Multicomponent diffusion run  40.

Transport step   1. Multicomponent diffusion run  41.

Transport step   1. Multicomponent diffusion run  42.

Using mix 1.	 
Using surface 1.	Surface assemblage after simulation 2.

Mixture 1.	 

	 0.000e+000 Solution 0	Solution after simulation 2.                           
	 0.000e+000 Solution 2	Solution after simulation 2.                           
	 1.000e+000 Solution 1	Solution after simulation 2.                           

------------------------------Surface composition------------------------------

Su            
	-7.004e-017  Surface + diffuse layer charge, eq
	-1.000e-003  Surface charge, eq
	-9.649e-003  sigma, C/m**2
	-1.192e-001  psi, V
	 4.641e+000  -F*psi/RT
	 1.036e+002  exp(-F*psi/RT)
	 1.000e+004  specific area, m**2/g
	 1.000e+004  m**2 for  1.000e+000 g

	Water in diffuse layer: 1.643e-001 kg, 100.0% of total DDL-water.
	Radius of total pore:   7.805e-008 m; of free pore: 5.940e-008 m.

	Total moles in diffuse layer (excluding water), Donnan calculation 

	Element       	     Moles
	Cl            	 1.9036e-006
	H             	 7.1333e-006
	Na            	 9.9477e-004
	O             	 9.5208e-007

Su            
	 1.000e-003  moles
	                                   Mole                     Log
	Species               Moles    Fraction    Molality    Molality

	Su-              1.000e-003       1.000  4.425e-003      -2.354

-----------------------------Solution composition------------------------------

	Elements           Molality       Moles

	Cl               2.659e-004  6.009e-005
	Na               2.640e-004  5.966e-005

----------------------------Description of solution----------------------------

                                       pH  =   5.731      Charge balance
                                       pe  =  14.405      Adjusted to redox equilibrium
       Specific Conductance (uS/cm, 25 oC) = 33
                          Density (g/cm3)  =   0.99706
                        Activity of water  =   1.000
                           Ionic strength  =  2.659e-004
                       Mass of water (kg)  =  2.260e-001
                 Total alkalinity (eq/kg)  = -1.888e-006
                    Total carbon (mol/kg)  =  0.000e+000
                       Total CO2 (mol/kg)  =  0.000e+000
                      Temperature (deg C)  =  25.000
                  Electrical balance (eq)  =  3.498e-010
 Percent error, 100*(Cat-|An|)/(Cat+|An|)  =   0.00
                               Iterations  =   3
                                  Total H  = 2.508936e+001
                                  Total O  = 1.254468e+001

----------------------------Distribution of species----------------------------

                                                   Log       Log         Log 
   Species                 Molality    Activity  Molality  Activity     Gamma

   H+                    1.893e-006  1.859e-006    -5.723    -5.731    -0.008
   OH-                   5.488e-009  5.386e-009    -8.261    -8.269    -0.008
   H2O                   9.585e+001  1.000e+000     1.982    -0.000     0.000
Cl              2.659e-004
   Cl-                   2.659e-004  2.609e-004    -3.575    -3.583    -0.008
H(0)            0.000e+000
   H2                    0.000e+000  0.000e+000   -43.421   -43.421     0.000
Na              2.640e-004
   Na+                   2.640e-004  2.591e-004    -3.578    -3.587    -0.008
   NaOH                  9.209e-013  9.210e-013   -12.036   -12.036     0.000
O(0)            5.796e-006
   O2                    2.898e-006  2.898e-006    -5.538    -5.538     0.000

------------------------------Saturation indices-------------------------------

	Phase               SI log IAP  log KT

	H2(g)           -40.27  -43.42   -3.15  H2
	H2O(g)           -1.51   -0.00    1.51  H2O
	Halite           -8.75   -7.17    1.58  NaCl
	O2(g)            -2.65   -5.54   -2.89  O2

Using mix 2.	 
Using surface 2.	Surface assemblage after simulation 2.

Mixture 2.	 

	 0.000e+000 Solution 1	Solution after simulation 2.                           
	 0.000e+000 Solution 3	Solution after simulation 2.                           
	 1.000e+000 Solution 2	Solution after simulation 2.                           

------------------------------Surface composition------------------------------

Su            
	-7.094e-012  Surface + diffuse layer charge, eq
	-1.000e-003  Surface charge, eq
	-9.649e-003  sigma, C/m**2
	-9.614e-002  psi, V
	 3.742e+000  -F*psi/RT
	 4.218e+001  exp(-F*psi/RT)
	 1.000e+004  specific area, m**2/g
	 1.000e+004  m**2 for  1.000e+000 g

	Water in diffuse layer: 1.085e-001 kg, 100.0% of total DDL-water.
	Radius of total pore:   7.805e-008 m; of free pore: 6.632e-008 m.

	Total moles in diffuse layer (excluding water), Donnan calculation 

	Element       	     Moles
	Cl            	 5.2906e-006
	H             	 3.5976e-006
	Na            	 1.0017e-003
	O             	 8.4455e-007

Su            
	 1.000e-003  moles
	                                   Mole                     Log
	Species               Moles    Fraction    Molality    Molality

	Su-              1.000e-003       1.000  3.549e-003      -2.450

-----------------------------Solution composition------------------------------

	Elements           Molality       Moles

	Cl               6.721e-004  1.893e-004
	Na               6.696e-004  1.887e-004

----------------------------Description of solution----------------------------

                                       pH  =   5.631      Charge balance
                                       pe  =  14.536      Adjusted to redox equilibrium
       Specific Conductance (uS/cm, 25 oC) = 84
                          Density (g/cm3)  =   0.99708
                        Activity of water  =   1.000
                           Ionic strength  =  6.721e-004
                       Mass of water (kg)  =  2.817e-001
                 Total alkalinity (eq/kg)  = -2.401e-006
                    Total carbon (mol/kg)  =  0.000e+000
                       Total CO2 (mol/kg)  =  0.000e+000
                      Temperature (deg C)  =  25.000
                  Electrical balance (eq)  =  1.594e-011
 Percent error, 100*(Cat-|An|)/(Cat+|An|)  =   0.00
                               Iterations  =   2
                                  Total H  = 3.127695e+001
                                  Total O  = 1.563848e+001

----------------------------Distribution of species----------------------------

                                                   Log       Log         Log 
   Species                 Molality    Activity  Molality  Activity     Gamma

   H+                    2.405e-006  2.338e-006    -5.619    -5.631    -0.012
   OH-                   4.410e-009  4.282e-009    -8.356    -8.368    -0.013
   H2O                   7.688e+001  1.000e+000     1.886    -0.000     0.000
Cl              6.721e-004
   Cl-                   6.721e-004  6.525e-004    -3.173    -3.185    -0.013
H(0)            0.000e+000
   H2                    0.000e+000  0.000e+000   -43.485   -43.485     0.000
Na              6.696e-004
   Na+                   6.696e-004  6.503e-004    -3.174    -3.187    -0.013
   NaOH                  1.837e-012  1.838e-012   -11.736   -11.736     0.000
O(0)            7.782e-006
   O2                    3.891e-006  3.892e-006    -5.410    -5.410     0.000

------------------------------Saturation indices-------------------------------

	Phase               SI log IAP  log KT

	H2(g)           -40.34  -43.49   -3.15  H2
	H2O(g)           -1.51   -0.00    1.51  H2O
	Halite           -7.95   -6.37    1.58  NaCl
	O2(g)            -2.52   -5.41   -2.89  O2

Using mix 3.	 
Using surface 3.	Surface assemblage after simulation 2.

Mixture 3.	 

	 0.000e+000 Solution 2	Solution after simulation 2.                           
	 0.000e+000 Solution 4	Solution after simulation 2.                           
	 1.000e+000 Solution 3	Solution after simulation 2.                           

------------------------------Surface composition------------------------------

Su            
	-1.108e-011  Surface + diffuse layer charge, eq
	-1.000e-003  Surface charge, eq
	-9.649e-003  sigma, C/m**2
	-8.962e-002  psi, V
	 3.488e+000  -F*psi/RT
	 3.273e+001  exp(-F*psi/RT)
	 1.000e+004  specific area, m**2/g
	 1.000e+004  m**2 for  1.000e+000 g

	Water in diffuse layer: 9.589e-002 kg, 100.0% of total DDL-water.
	Radius of total pore:   7.805e-008 m; of free pore: 6.779e-008 m.

	Total moles in diffuse layer (excluding water), Donnan calculation 

	Element       	     Moles
	Cl            	 7.0432e-006
	H             	 1.8910e-006
	Na            	 1.0052e-003
	O             	 2.3048e-007

Su            
	 1.000e-003  moles
	                                   Mole                     Log
	Species               Moles    Fraction    Molality    Molality

	Su-              1.000e-003       1.000  3.397e-003      -2.469

-----------------------------Solution composition------------------------------

	Elements           Molality       Moles

	Cl               8.783e-004  2.585e-004
	Na               8.766e-004  2.581e-004

----------------------------Description of solution----------------------------

                                       pH  =   5.797      Charge balance
                                       pe  =  14.243      Adjusted to redox equilibrium
       Specific Conductance (uS/cm, 25 oC) = 109
                          Density (g/cm3)  =   0.99708
                        Activity of water  =   1.000
                           Ionic strength  =  8.783e-004
                       Mass of water (kg)  =  2.944e-001
                 Total alkalinity (eq/kg)  = -1.643e-006
                    Total carbon (mol/kg)  =  0.000e+000
                       Total CO2 (mol/kg)  =  0.000e+000
                      Temperature (deg C)  =  25.000
                  Electrical balance (eq)  = -5.228e-011
 Percent error, 100*(Cat-|An|)/(Cat+|An|)  =  -0.00
                               Iterations  =   2
                                  Total H  = 3.267847e+001
                                  Total O  = 1.633923e+001

----------------------------Distribution of species----------------------------

                                                   Log       Log         Log 
   Species                 Molality    Activity  Molality  Activity     Gamma

   H+                    1.649e-006  1.597e-006    -5.783    -5.797    -0.014
   OH-                   6.482e-009  6.267e-009    -8.188    -8.203    -0.015
   H2O                   7.359e+001  1.000e+000     1.867    -0.000     0.000
Cl              8.783e-004
   Cl-                   8.783e-004  8.493e-004    -3.056    -3.071    -0.015
H(0)            0.000e+000
   H2                    0.000e+000  0.000e+000   -43.230   -43.230     0.000
Na              8.766e-004
   Na+                   8.766e-004  8.479e-004    -3.057    -3.072    -0.014
   NaOH                  3.507e-012  3.507e-012   -11.455   -11.455     0.000
O(0)            2.403e-006
   O2                    1.202e-006  1.202e-006    -5.920    -5.920     0.000

------------------------------Saturation indices-------------------------------

	Phase               SI log IAP  log KT

	H2(g)           -40.08  -43.23   -3.15  H2
	H2O(g)           -1.51   -0.00    1.51  H2O
	Halite           -7.72   -6.14    1.58  NaCl
	O2(g)            -3.03   -5.92   -2.89  O2

Using mix 4.	 
Using surface 4.	Surface assemblage after simulation 2.

Mixture 4.	 

	 0.000e+000 Solution 3	Solution after simulation 2.                           
	 0.000e+000 Solution 5	Solution after simulation 2.                           
	 1.000e+000 Solution 4	Solution after simulation 2.                           

------------------------------Surface composition------------------------------

Su            
	 7.589e-017  Surface + diffuse layer charge, eq
	-1.000e-003  Surface charge, eq
	-9.649e-003  sigma, C/m**2
	-8.739e-002  psi, V
	 3.402e+000  -F*psi/RT
	 3.001e+001  exp(-F*psi/RT)
	 1.000e+004  specific area, m**2/g
	 1.000e+004  m**2 for  1.000e+000 g

	Water in diffuse layer: 9.185e-002 kg, 100.0% of total DDL-water.
	Radius of total pore:   7.805e-008 m; of free pore: 6.825e-008 m.

	Total moles in diffuse layer (excluding water), Donnan calculation 

	Element       	     Moles
	Cl            	 7.7692e-006
	H             	 1.0344e-006
	Na            	 1.0067e-003
	O             	 6.3284e-008

Su            
	 1.000e-003  moles
	                                   Mole                     Log
	Species               Moles    Fraction    Molality    Molality

	Su-              1.000e-003       1.000  3.351e-003      -2.475

-----------------------------Solution composition------------------------------

	Elements           Molality       Moles

	Cl               9.634e-004  2.875e-004
	Na               9.624e-004  2.872e-004

----------------------------Description of solution----------------------------

                                       pH  =   6.019      Charge balance
                                       pe  =  13.885      Adjusted to redox equilibrium
       Specific Conductance (uS/cm, 25 oC) = 119
                          Density (g/cm3)  =   0.99709
                        Activity of water  =   1.000
                           Ionic strength  =  9.634e-004
                       Mass of water (kg)  =  2.984e-001
                 Total alkalinity (eq/kg)  = -9.779e-007
                    Total carbon (mol/kg)  =  0.000e+000
                       Total CO2 (mol/kg)  =  0.000e+000
                      Temperature (deg C)  =  25.000
                  Electrical balance (eq)  =  2.655e-011
 Percent error, 100*(Cat-|An|)/(Cat+|An|)  =   0.00
                               Iterations  =   3
                                  Total H  = 3.312720e+001
                                  Total O  = 1.656360e+001

----------------------------Distribution of species----------------------------

                                                   Log       Log         Log 
   Species                 Molality    Activity  Molality  Activity     Gamma

   H+                    9.888e-007  9.563e-007    -6.005    -6.019    -0.014
   OH-                   1.084e-008  1.047e-008    -7.965    -7.980    -0.015
   H2O                   7.259e+001  1.000e+000     1.861    -0.000     0.000
Cl              9.634e-004
   Cl-                   9.634e-004  9.301e-004    -3.016    -3.031    -0.015
H(0)            0.000e+000
   H2                    0.000e+000  0.000e+000   -42.958   -42.958     0.000
Na              9.624e-004
   Na+                   9.624e-004  9.295e-004    -3.017    -3.032    -0.015
   NaOH                  6.420e-012  6.421e-012   -11.192   -11.192     0.000
O(0)            6.880e-007
   O2                    3.440e-007  3.441e-007    -6.463    -6.463     0.000

------------------------------Saturation indices-------------------------------

	Phase               SI log IAP  log KT

	H2(g)           -39.81  -42.96   -3.15  H2
	H2O(g)           -1.51   -0.00    1.51  H2O
	Halite           -7.65   -6.06    1.58  NaCl
	O2(g)            -3.57   -6.46   -2.89  O2

Using mix 5.	 
Using surface 5.	Surface assemblage after simulation 2.

Mixture 5.	 

	 0.000e+000 Solution 4	Solution after simulation 2.                           
	 0.000e+000 Solution 6	Solution after simulation 2.                           
	 1.000e+000 Solution 5	Solution after simulation 2.                           

------------------------------Surface composition------------------------------

Su            
	-6.596e-016  Surface + diffuse layer charge, eq
	-1.000e-003  Surface charge, eq
	-9.649e-003  sigma, C/m**2
	-8.671e-002  psi, V
	 3.375e+000  -F*psi/RT
	 2.923e+001  exp(-F*psi/RT)
	 1.000e+004  specific area, m**2/g
	 1.000e+004  m**2 for  1.000e+000 g

	Water in diffuse layer: 9.064e-002 kg, 100.0% of total DDL-water.
	Radius of total pore:   7.805e-008 m; of free pore: 6.839e-008 m.

	Total moles in diffuse layer (excluding water), Donnan calculation 

	Element       	     Moles
	Cl            	 8.0053e-006
	H             	 5.8524e-007
	Na            	 1.0074e-003
	O             	 1.6422e-008

Su            
	 1.000e-003  moles
	                                   Mole                     Log
	Species               Moles    Fraction    Molality    Molality

	Su-              1.000e-003       1.000  3.338e-003      -2.477

-----------------------------Solution composition------------------------------

	Elements           Molality       Moles

	Cl               9.910e-004  2.969e-004
	Na               9.904e-004  2.968e-004

----------------------------Description of solution----------------------------

                                       pH  =   6.255      Charge balance
                                       pe  =  13.503      Adjusted to redox equilibrium
       Specific Conductance (uS/cm, 25 oC) = 122
                          Density (g/cm3)  =   0.99709
                        Activity of water  =   1.000
                           Ionic strength  =  9.910e-004
                       Mass of water (kg)  =  2.996e-001
                 Total alkalinity (eq/kg)  = -5.566e-007
                    Total carbon (mol/kg)  =  0.000e+000
                       Total CO2 (mol/kg)  =  0.000e+000
                      Temperature (deg C)  =  25.000
                  Electrical balance (eq)  =  2.284e-010
 Percent error, 100*(Cat-|An|)/(Cat+|An|)  =   0.00
                               Iterations  =   3
                                  Total H  = 3.326095e+001
                                  Total O  = 1.663047e+001

----------------------------Distribution of species----------------------------

                                                   Log       Log         Log 
   Species                 Molality    Activity  Molality  Activity     Gamma

   H+                    5.752e-007  5.561e-007    -6.240    -6.255    -0.015
   OH-                   1.865e-008  1.800e-008    -7.729    -7.745    -0.015
   H2O                   7.230e+001  1.000e+000     1.859    -0.000     0.000
Cl              9.910e-004
   Cl-                   9.910e-004  9.563e-004    -3.004    -3.019    -0.015
H(0)            0.000e+000
   H2                    0.000e+000  0.000e+000   -42.667   -42.667     0.000
Na              9.904e-004
   Na+                   9.904e-004  9.561e-004    -3.004    -3.019    -0.015
   NaOH                  1.136e-011  1.136e-011   -10.945   -10.945     0.000
O(0)            1.795e-007
   O2                    8.975e-008  8.977e-008    -7.047    -7.047     0.000

------------------------------Saturation indices-------------------------------

	Phase               SI log IAP  log KT

	H2(g)           -39.52  -42.67   -3.15  H2
	H2O(g)           -1.51   -0.00    1.51  H2O
	Halite           -7.62   -6.04    1.58  NaCl
	O2(g)            -4.15   -7.05   -2.89  O2

Using mix 6.	 
Using surface 6.	Surface assemblage after simulation 2.

Mixture 6.	 

	 0.000e+000 Solution 5	Solution after simulation 2.                           
	 0.000e+000 Solution 7	Solution after simulation 2.                           
	 1.000e+000 Solution 6	Solution after simulation 2.                           

------------------------------Surface composition------------------------------

Su            
	-1.663e-016  Surface + diffuse layer charge, eq
	-1.000e-003  Surface charge, eq
	-9.649e-003  sigma, C/m**2
	-8.654e-002  psi, V
	 3.368e+000  -F*psi/RT
	 2.903e+001  exp(-F*psi/RT)
	 1.000e+004  specific area, m**2/g
	 1.000e+004  m**2 for  1.000e+000 g

	Water in diffuse layer: 9.034e-002 kg, 100.0% of total DDL-water.
	Radius of total pore:   7.805e-008 m; of free pore: 6.842e-008 m.

	Total moles in diffuse layer (excluding water), Donnan calculation 

	Element       	     Moles
	Cl            	 8.0669e-006
	H             	 3.4710e-007
	Na            	 1.0077e-003
	O             	 4.0697e-009

Su            
	 1.000e-003  moles
	                                   Mole                     Log
	Species               Moles    Fraction    Molality    Molality

	Su-              1.000e-003       1.000  3.334e-003      -2.477

-----------------------------Solution composition------------------------------

	Elements           Molality       Moles

	Cl               9.982e-004  2.994e-004
	Na               9.979e-004  2.993e-004

----------------------------Description of solution----------------------------

                                       pH  =   6.479      Charge balance
                                       pe  =  13.122      Adjusted to redox equilibrium
       Specific Conductance (uS/cm, 25 oC) = 123
                          Density (g/cm3)  =   0.99709
                        Activity of water  =   1.000
                           Ionic strength  =  9.982e-004
                       Mass of water (kg)  =  2.999e-001
                 Total alkalinity (eq/kg)  = -3.122e-007
                    Total carbon (mol/kg)  =  0.000e+000
                       Total CO2 (mol/kg)  =  0.000e+000
                      Temperature (deg C)  =  25.000
                  Electrical balance (eq)  =  2.473e-010
 Percent error, 100*(Cat-|An|)/(Cat+|An|)  =   0.00
                               Iterations  =   3
                                  Total H  = 3.329501e+001
                                  Total O  = 1.664750e+001

----------------------------Distribution of species----------------------------

                                                   Log       Log         Log 
   Species                 Molality    Activity  Molality  Activity     Gamma

   H+                    3.435e-007  3.320e-007    -6.464    -6.479    -0.015
   OH-                   3.125e-008  3.015e-008    -7.505    -7.521    -0.016
   H2O                   7.222e+001  1.000e+000     1.859    -0.000     0.000
Cl              9.982e-004
   Cl-                   9.982e-004  9.632e-004    -3.001    -3.016    -0.016
H(0)            0.000e+000
   H2                    0.000e+000  0.000e+000   -42.352   -42.352     0.000
Na              9.979e-004
   Na+                   9.979e-004  9.632e-004    -3.001    -3.016    -0.015
   NaOH                  1.916e-011  1.917e-011   -10.718   -10.717     0.000
O(0)            4.223e-008
   O2                    2.112e-008  2.112e-008    -7.675    -7.675     0.000

------------------------------Saturation indices-------------------------------

	Phase               SI log IAP  log KT

	H2(g)           -39.20  -42.35   -3.15  H2
	H2O(g)           -1.51   -0.00    1.51  H2O
	Halite           -7.61   -6.03    1.58  NaCl
	O2(g)            -4.78   -7.68   -2.89  O2

Using mix 7.	 
Using surface 7.	Surface assemblage after simulation 2.

Mixture 7.	 

	 0.000e+000 Solution 6	Solution after simulation 2.                           
	 0.000e+000 Solution 8	Solution after simulation 2.                           
	 1.000e+000 Solution 7	Solution after simulation 2.                           

------------------------------Surface composition------------------------------

Su            
	 3.242e-016  Surface + diffuse layer charge, eq
	-1.000e-003  Surface charge, eq
	-9.649e-003  sigma, C/m**2
	-8.650e-002  psi, V
	 3.367e+000  -F*psi/RT
	 2.899e+001  exp(-F*psi/RT)
	 1.000e+004  specific area, m**2/g
	 1.000e+004  m**2 for  1.000e+000 g

	Water in diffuse layer: 9.027e-002 kg, 100.0% of total DDL-water.
	Radius of total pore:   7.805e-008 m; of free pore: 6.843e-008 m.

	Total moles in diffuse layer (excluding water), Donnan calculation 

	Element       	     Moles
	Cl            	 8.0799e-006
	H             	 2.2306e-007
	Na            	 1.0079e-003
	O             	 1.1984e-009

Su            
	 1.000e-003  moles
	                                   Mole                     Log
	Species               Moles    Fraction    Molality    Molality

	Su-              1.000e-003       1.000  3.333e-003      -2.477

-----------------------------Solution composition------------------------------

	Elements           Molality       Moles

	Cl               9.997e-004  2.999e-004
	Na               9.996e-004  2.999e-004

----------------------------Description of solution----------------------------

                                       pH  =   6.671      Charge balance
                                       pe  =  12.761      Adjusted to redox equilibrium
       Specific Conductance (uS/cm, 25 oC) = 123
                          Density (g/cm3)  =   0.99709
                        Activity of water  =   1.000
                           Ionic strength  =  9.998e-004
                       Mass of water (kg)  =  3.000e-001
                 Total alkalinity (eq/kg)  = -1.722e-007
                    Total carbon (mol/kg)  =  0.000e+000
                       Total CO2 (mol/kg)  =  0.000e+000
                      Temperature (deg C)  =  25.000
                  Electrical balance (eq)  =  1.857e-010
 Percent error, 100*(Cat-|An|)/(Cat+|An|)  =   0.00
                               Iterations  =   3
                                  Total H  = 3.330224e+001
                                  Total O  = 1.665112e+001

----------------------------Distribution of species----------------------------

                                                   Log       Log         Log 
   Species                 Molality    Activity  Molality  Activity     Gamma

   H+                    2.208e-007  2.135e-007    -6.656    -6.671    -0.015
   OH-                   4.860e-008  4.689e-008    -7.313    -7.329    -0.016
   H2O                   7.221e+001  1.000e+000     1.859    -0.000     0.000
Cl              9.997e-004
   Cl-                   9.997e-004  9.646e-004    -3.000    -3.016    -0.016
H(0)            0.000e+000
   H2                    0.000e+000  0.000e+000   -42.014   -42.014     0.000
Na              9.996e-004
   Na+                   9.996e-004  9.648e-004    -3.000    -3.016    -0.015
   NaOH                  2.985e-011  2.986e-011   -10.525   -10.525     0.000
O(0)            8.894e-009
   O2                    4.447e-009  4.448e-009    -8.352    -8.352     0.000

------------------------------Saturation indices-------------------------------

	Phase               SI log IAP  log KT

	H2(g)           -38.86  -42.01   -3.15  H2
	H2O(g)           -1.51   -0.00    1.51  H2O
	Halite           -7.61   -6.03    1.58  NaCl
	O2(g)            -5.46   -8.35   -2.89  O2

Using mix 8.	 
Using surface 8.	Surface assemblage after simulation 2.

Mixture 8.	 

	 0.000e+000 Solution 7	Solution after simulation 2.                           
	 0.000e+000 Solution 9	Solution after simulation 2.                           
	 1.000e+000 Solution 8	Solution after simulation 2.                           

------------------------------Surface composition------------------------------

Su            
	-8.819e-012  Surface + diffuse layer charge, eq
	-1.000e-003  Surface charge, eq
	-9.649e-003  sigma, C/m**2
	-8.649e-002  psi, V
	 3.367e+000  -F*psi/RT
	 2.898e+001  exp(-F*psi/RT)
	 1.000e+004  specific area, m**2/g
	 1.000e+004  m**2 for  1.000e+000 g

	Water in diffuse layer: 9.026e-002 kg, 100.0% of total DDL-water.
	Radius of total pore:   7.805e-008 m; of free pore: 6.843e-008 m.

	Total moles in diffuse layer (excluding water), Donnan calculation 

	Element       	     Moles
	Cl            	 8.0821e-006
	H             	 1.6105e-007
	Na            	 1.0079e-003
	O             	 7.1157e-010

Su            
	 1.000e-003  moles
	                                   Mole                     Log
	Species               Moles    Fraction    Molality    Molality

	Su-              1.000e-003       1.000  3.333e-003      -2.477

-----------------------------Solution composition------------------------------

	Elements           Molality       Moles

	Cl               1.000e-003  3.000e-004
	Na               9.999e-004  3.000e-004

----------------------------Description of solution----------------------------

                                       pH  =   6.813      Charge balance
                                       pe  =  12.446      Adjusted to redox equilibrium
       Specific Conductance (uS/cm, 25 oC) = 123
                          Density (g/cm3)  =   0.99709
                        Activity of water  =   1.000
                           Ionic strength  =  1.000e-003
                       Mass of water (kg)  =  3.000e-001
                 Total alkalinity (eq/kg)  = -9.177e-008
                    Total carbon (mol/kg)  =  0.000e+000
                       Total CO2 (mol/kg)  =  0.000e+000
                      Temperature (deg C)  =  25.000
                  Electrical balance (eq)  =  2.124e-010
 Percent error, 100*(Cat-|An|)/(Cat+|An|)  =   0.00
                               Iterations  =   2
                                  Total H  = 3.330352e+001
                                  Total O  = 1.665176e+001

----------------------------Distribution of species----------------------------

                                                   Log       Log         Log 
   Species                 Molality    Activity  Molality  Activity     Gamma

   H+                    1.592e-007  1.539e-007    -6.798    -6.813    -0.015
   OH-                   6.741e-008  6.504e-008    -7.171    -7.187    -0.016
   H2O                   7.221e+001  1.000e+000     1.859    -0.000     0.000
Cl              1.000e-003
   Cl-                   1.000e-003  9.649e-004    -3.000    -3.016    -0.016
H(0)            0.000e+000
   H2                    0.000e+000  0.000e+000   -41.668   -41.668     0.000
Na              9.999e-004
   Na+                   9.999e-004  9.651e-004    -3.000    -3.015    -0.015
   NaOH                  4.142e-011  4.143e-011   -10.383   -10.383     0.000
O(0)            1.806e-009
   O2                    9.030e-010  9.032e-010    -9.044    -9.044     0.000

------------------------------Saturation indices-------------------------------

	Phase               SI log IAP  log KT

	H2(g)           -38.52  -41.67   -3.15  H2
	H2O(g)           -1.51   -0.00    1.51  H2O
	Halite           -7.61   -6.03    1.58  NaCl
	O2(g)            -6.15   -9.04   -2.89  O2

Using mix 9.	 
Using surface 9.	Surface assemblage after simulation 2.

Mixture 9.	 

	 0.000e+000 Solution 8	Solution after simulation 2.                           
	 0.000e+000 Solution 10	Solution after simulation 2.                           
	 1.000e+000 Solution 9	Solution after simulation 2.                           

------------------------------Surface composition------------------------------

Su            
	 8.705e-012  Surface + diffuse layer charge, eq
	-1.000e-003  Surface charge, eq
	-9.649e-003  sigma, C/m**2
	-8.649e-002  psi, V
	 3.367e+000  -F*psi/RT
	 2.898e+001  exp(-F*psi/RT)
	 1.000e+004  specific area, m**2/g
	 1.000e+004  m**2 for  1.000e+000 g

	Water in diffuse layer: 9.026e-002 kg, 100.0% of total DDL-water.
	Radius of total pore:   7.805e-008 m; of free pore: 6.843e-008 m.

	Total moles in diffuse layer (excluding water), Donnan calculation 

	Element       	     Moles
	Cl            	 8.0823e-006
	H             	 1.3208e-007
	Na            	 1.0080e-003
	O             	 6.9707e-010

Su            
	 1.000e-003  moles
	                                   Mole                     Log
	Species               Moles    Fraction    Molality    Molality

	Su-              1.000e-003       1.000  3.333e-003      -2.477

-----------------------------Solution composition------------------------------

	Elements           Molality       Moles

	Cl               1.000e-003  3.000e-004
	Na               1.000e-003  3.000e-004

----------------------------Description of solution----------------------------

                                       pH  =   6.900      Charge balance
                                       pe  =  12.165      Adjusted to redox equilibrium
       Specific Conductance (uS/cm, 25 oC) = 123
                          Density (g/cm3)  =   0.99709
                        Activity of water  =   1.000
                           Ionic strength  =  1.000e-003
                       Mass of water (kg)  =  3.000e-001
                 Total alkalinity (eq/kg)  = -4.799e-008
                    Total carbon (mol/kg)  =  0.000e+000
                       Total CO2 (mol/kg)  =  0.000e+000
                      Temperature (deg C)  =  25.000
                  Electrical balance (eq)  =  1.865e-010
 Percent error, 100*(Cat-|An|)/(Cat+|An|)  =   0.00
                               Iterations  =   2
                                  Total H  = 3.330371e+001
                                  Total O  = 1.665186e+001

----------------------------Distribution of species----------------------------

                                                   Log       Log         Log 
   Species                 Molality    Activity  Molality  Activity     Gamma

   H+                    1.304e-007  1.260e-007    -6.885    -6.900    -0.015
   OH-                   8.233e-008  7.944e-008    -7.084    -7.100    -0.016
   H2O                   7.221e+001  1.000e+000     1.859    -0.000     0.000
Cl              1.000e-003
   Cl-                   1.000e-003  9.649e-004    -3.000    -3.016    -0.016
H(0)            0.000e+000
   H2                    0.000e+000  0.000e+000   -41.278   -41.278     0.000
Na              1.000e-003
   Na+                   1.000e-003  9.652e-004    -3.000    -3.015    -0.015
   NaOH                  5.059e-011  5.060e-011   -10.296   -10.296     0.000
O(0)            3.002e-010
   O2                    1.501e-010  1.501e-010    -9.824    -9.824     0.000

------------------------------Saturation indices-------------------------------

	Phase               SI log IAP  log KT

	H2(g)           -38.13  -41.28   -3.15  H2
	H2O(g)           -1.51   -0.00    1.51  H2O
	Halite           -7.61   -6.03    1.58  NaCl
	O2(g)            -6.93   -9.82   -2.89  O2

Using mix 10.	 
Using surface 10.	Surface assemblage after simulation 2.

Mixture 10.	 

	 0.000e+000 Solution 9	Solution after simulation 2.                           
	 0.000e+000 Solution 11	                                                       
	 1.000e+000 Solution 10	Solution after simulation 2.                           

------------------------------Surface composition------------------------------

Su            
	-4.886e-015  Surface + diffuse layer charge, eq
	-1.000e-003  Surface charge, eq
	-9.649e-003  sigma, C/m**2
	-8.649e-002  psi, V
	 3.367e+000  -F*psi/RT
	 2.898e+001  exp(-F*psi/RT)
	 1.000e+004  specific area, m**2/g
	 1.000e+004  m**2 for  1.000e+000 g

	Water in diffuse layer: 9.026e-002 kg, 100.0% of total DDL-water.
	Radius of total pore:   7.805e-008 m; of free pore: 6.843e-008 m.

	Total moles in diffuse layer (excluding water), Donnan calculation 

	Element       	     Moles
	Cl            	 8.0823e-006
	H             	 1.2083e-007
	Na            	 1.0080e-003
	O             	 7.3659e-010

Su            
	 1.000e-003  moles
	                                   Mole                     Log
	Species               Moles    Fraction    Molality    Molality

	Su-              1.000e-003       1.000  3.333e-003      -2.477

-----------------------------Solution composition------------------------------

	Elements           Molality       Moles

	Cl               1.000e-003  3.000e-004
	Na               1.000e-003  3.000e-004

----------------------------Description of solution----------------------------

                                       pH  =   6.939      Charge balance
                                       pe  =  11.904      Adjusted to redox equilibrium
       Specific Conductance (uS/cm, 25 oC) = 123
                          Density (g/cm3)  =   0.99709
                        Activity of water  =   1.000
                           Ionic strength  =  1.000e-003
                       Mass of water (kg)  =  3.000e-001
                 Total alkalinity (eq/kg)  = -2.901e-008
                    Total carbon (mol/kg)  =  0.000e+000
                       Total CO2 (mol/kg)  =  0.000e+000
                      Temperature (deg C)  =  25.000
                  Electrical balance (eq)  =  1.981e-010
 Percent error, 100*(Cat-|An|)/(Cat+|An|)  =   0.00
                               Iterations  =   3
                                  Total H  = 3.330373e+001
                                  Total O  = 1.665187e+001

----------------------------Distribution of species----------------------------

                                                   Log       Log         Log 
   Species                 Molality    Activity  Molality  Activity     Gamma

   H+                    1.191e-007  1.152e-007    -6.924    -6.939    -0.015
   OH-                   9.008e-008  8.691e-008    -7.045    -7.061    -0.016
   H2O                   7.221e+001  1.000e+000     1.859    -0.000     0.000
Cl              1.000e-003
   Cl-                   1.000e-003  9.649e-004    -3.000    -3.016    -0.016
H(0)            0.000e+000
   H2                    0.000e+000  0.000e+000   -40.836   -40.836     0.000
Na              1.000e-003
   Na+                   1.000e-003  9.652e-004    -3.000    -3.015    -0.015
   NaOH                  5.535e-011  5.536e-011   -10.257   -10.257     0.000
O(0)            3.921e-011
   O2                    1.961e-011  1.961e-011   -10.708   -10.708     0.000

------------------------------Saturation indices-------------------------------

	Phase               SI log IAP  log KT

	H2(g)           -37.69  -40.84   -3.15  H2
	H2O(g)           -1.51   -0.00    1.51  H2O
	Halite           -7.61   -6.03    1.58  NaCl
	O2(g)            -7.82  -10.71   -2.89  O2

------------------
End of simulation.
------------------

------------------------------------
Reading input data for simulation 3.
------------------------------------

-----------
End of run.
-----------

