   Input file: debye1
  Output file: debye1.out
Database file: ../database/phreeqc.dat

------------------
Reading data base.
------------------

	SOLUTION_MASTER_SPECIES
	SOLUTION_SPECIES
	PHASES
	EXCHANGE_MASTER_SPECIES
	EXCHANGE_SPECIES
	SURFACE_MASTER_SPECIES
	SURFACE_SPECIES
	RATES
	END
------------------------------------
Reading input data for simulation 1.
------------------------------------

	DATABASE ../database/phreeqc.dat
	SOLUTION 0
	 Na 100
	 Cl 100 charge
	SOLUTION 1-10
	 Ca 0.1
	 C(4) 1 charge
	 water 1
	SURFACE_MASTER_SPECIES
	 Su Su-
	SURFACE_SPECIES
	 Su- = Su-
	 log_k 0
	END
-------------------------------------------
Beginning of initial solution calculations.
-------------------------------------------

Initial solution 0.	

-----------------------------Solution composition------------------------------

	Elements           Molality       Moles

	Cl               1.000e-001  1.000e-001  Charge balance
	Na               1.000e-001  1.000e-001

----------------------------Description of solution----------------------------

                                       pH  =   7.000    
                                       pe  =   4.000    
       Specific Conductance (uS/cm, 25 oC) = 10802
                          Density (g/cm3)  =   1.00116
                        Activity of water  =   0.997
                           Ionic strength  =  1.000e-001
                       Mass of water (kg)  =  1.000e+000
                 Total alkalinity (eq/kg)  =  1.486e-008
                    Total carbon (mol/kg)  =  0.000e+000
                       Total CO2 (mol/kg)  =  0.000e+000
                      Temperature (deg C)  =  25.000
                  Electrical balance (eq)  = -1.286e-015
 Percent error, 100*(Cat-|An|)/(Cat+|An|)  =  -0.00
                               Iterations  =   9
                                  Total H  = 1.110124e+002
                                  Total O  = 5.550622e+001

----------------------------Distribution of species----------------------------

                                                   Log       Log         Log 
   Species                 Molality    Activity  Molality  Activity     Gamma

   OH-                   1.310e-007  9.977e-008    -6.883    -7.001    -0.118
   H+                    1.211e-007  1.000e-007    -6.917    -7.000    -0.083
   H2O                   5.551e+001  9.966e-001     1.744    -0.001     0.000
Cl              1.000e-001
   Cl-                   1.000e-001  7.645e-002    -1.000    -1.117    -0.117
H(0)            1.384e-025
   H2                    6.918e-026  7.079e-026   -25.160   -25.150     0.010
Na              1.000e-001
   Na+                   1.000e-001  7.829e-002    -1.000    -1.106    -0.106
   NaOH                  5.038e-009  5.155e-009    -8.298    -8.288     0.010
O(0)            0.000e+000
   O2                    0.000e+000  0.000e+000   -42.093   -42.083     0.010

------------------------------Saturation indices-------------------------------

	Phase               SI log IAP  log KT

	H2(g)           -22.00  -25.15   -3.15  H2
	H2O(g)           -1.51   -0.00    1.51  H2O
	Halite           -3.80   -2.22    1.58  NaCl
	O2(g)           -39.19  -42.08   -2.89  O2

Initial solution 1.	

-----------------------------Solution composition------------------------------

	Elements           Molality       Moles

	C(4)             2.439e-004  2.439e-004  Charge balance
	Ca               1.000e-004  1.000e-004

----------------------------Description of solution----------------------------

                                       pH  =   7.000    
                                       pe  =   4.000    
       Specific Conductance (uS/cm, 25 oC) = 20
                          Density (g/cm3)  =   0.99706
                        Activity of water  =   1.000
                           Ionic strength  =  2.997e-004
                       Mass of water (kg)  =  1.000e+000
                 Total alkalinity (eq/kg)  =  2.000e-004
                       Total CO2 (mol/kg)  =  2.439e-004
                      Temperature (deg C)  =  25.000
                  Electrical balance (eq)  = -1.302e-012
 Percent error, 100*(Cat-|An|)/(Cat+|An|)  =  -0.00
                               Iterations  =   5
                                  Total H  = 1.110126e+002
                                  Total O  = 5.550690e+001

----------------------------Distribution of species----------------------------

                                                   Log       Log         Log 
   Species                 Molality    Activity  Molality  Activity     Gamma

   OH-                   1.021e-007  1.001e-007    -6.991    -7.000    -0.009
   H+                    1.020e-007  1.000e-007    -6.992    -7.000    -0.008
   H2O                   5.551e+001  1.000e+000     1.744    -0.000     0.000
C(4)            2.439e-004
   HCO3-                 1.995e-004  1.956e-004    -3.700    -3.709    -0.009
   CO2                   4.399e-005  4.399e-005    -4.357    -4.357     0.000
   CaHCO3+               2.347e-007  2.301e-007    -6.630    -6.638    -0.009
   CO3-2                 9.927e-008  9.175e-008    -7.003    -7.037    -0.034
   CaCO3                 1.421e-008  1.421e-008    -7.847    -7.847     0.000
Ca              1.000e-004
   Ca+2                  9.975e-005  9.219e-005    -4.001    -4.035    -0.034
   CaHCO3+               2.347e-007  2.301e-007    -6.630    -6.638    -0.009
   CaCO3                 1.421e-008  1.421e-008    -7.847    -7.847     0.000
   CaOH+                 1.561e-010  1.530e-010    -9.807    -9.815    -0.009
H(0)            1.416e-025
   H2                    7.079e-026  7.079e-026   -25.150   -25.150     0.000
O(0)            0.000e+000
   O2                    0.000e+000  0.000e+000   -42.080   -42.080     0.000

------------------------------Saturation indices-------------------------------

	Phase               SI log IAP  log KT

	Aragonite        -2.74  -11.07   -8.34  CaCO3
	Calcite          -2.59  -11.07   -8.48  CaCO3
	CO2(g)           -2.89   -4.36   -1.47  CO2
	H2(g)           -22.00  -25.15   -3.15  H2
	H2O(g)           -1.51   -0.00    1.51  H2O
	O2(g)           -39.19  -42.08   -2.89  O2

------------------
End of simulation.
------------------

------------------------------------
Reading input data for simulation 2.
------------------------------------

	TRANSPORT
	 cells 10
	 length 1e-9
	 shifts 1 0
	 bcond 1 2
	 timest 5e-10
	 punch_frequency 1
	 multi_d true 1e-9 1 0 1
	SELECTED_OUTPUT
WARNING: Cell-lengths were read for 1 cells. Last value is used till cell 10.
WARNING: No dispersivities were read; disp = 0 assumed.
	 file debye1.sel
	 reset false
	USER_PUNCH
	 heading dist H2O_aq H2O_edl H2O_tot Na Cl pH mass_Na mass_Cl
	 start
	 1 if step_no = 0 then goto 80
	 10 punch dist, tot("water"), edl("water"), tot("water") + edl("water"), tot("Na")*1e3, tot("Cl")*1e3, -la("H+")
	 20 if cell_no = 1 then put(0, 1)
	 30 if cell_no = 1 then put(0, 2)
	 40 put(sys("Na") + get(1), 1)
	 50 put(sys("Cl") + get(2), 2)
	 60 if cell_no = 10 then punch get(1) * 1e3
	 70 if cell_no = 10 then punch get(2) * 1e3
	 80 end
	 end
	END
------------------------------------
Beginning of transport calculations.
------------------------------------

-------------------------------
Equilibrating initial solutions
-------------------------------

Using solution 1.	

-----------------------------Solution composition------------------------------

	Elements           Molality       Moles

	C                2.439e-004  2.439e-004
	Ca               1.000e-004  1.000e-004

----------------------------Description of solution----------------------------

                                       pH  =   7.000      Charge balance
                                       pe  =   4.000      Adjusted to redox equilibrium
       Specific Conductance (uS/cm, 25 oC) = 20
                          Density (g/cm3)  =   0.99706
                        Activity of water  =   1.000
                           Ionic strength  =  2.997e-004
                       Mass of water (kg)  =  1.000e+000
                 Total alkalinity (eq/kg)  =  2.000e-004
                       Total CO2 (mol/kg)  =  2.439e-004
                      Temperature (deg C)  =  25.000
                  Electrical balance (eq)  = -1.302e-012
 Percent error, 100*(Cat-|An|)/(Cat+|An|)  =  -0.00
                               Iterations  =   0
                                  Total H  = 1.110126e+002
                                  Total O  = 5.550690e+001

----------------------------Distribution of species----------------------------

                                                   Log       Log         Log 
   Species                 Molality    Activity  Molality  Activity     Gamma

   OH-                   1.021e-007  1.001e-007    -6.991    -7.000    -0.009
   H+                    1.020e-007  1.000e-007    -6.992    -7.000    -0.008
   H2O                   5.551e+001  1.000e+000     1.744    -0.000     0.000
C(-4)           0.000e+000
   CH4                   0.000e+000  0.000e+000   -67.966   -67.966     0.000
C(4)            2.439e-004
   HCO3-                 1.995e-004  1.956e-004    -3.700    -3.709    -0.009
   CO2                   4.399e-005  4.399e-005    -4.357    -4.357     0.000
   CaHCO3+               2.347e-007  2.301e-007    -6.630    -6.638    -0.009
   CO3-2                 9.927e-008  9.175e-008    -7.003    -7.037    -0.034
   CaCO3                 1.421e-008  1.421e-008    -7.847    -7.847     0.000
Ca              1.000e-004
   Ca+2                  9.975e-005  9.219e-005    -4.001    -4.035    -0.034
   CaHCO3+               2.347e-007  2.301e-007    -6.630    -6.638    -0.009
   CaCO3                 1.421e-008  1.421e-008    -7.847    -7.847     0.000
   CaOH+                 1.561e-010  1.530e-010    -9.807    -9.815    -0.009
H(0)            1.416e-025
   H2                    7.079e-026  7.079e-026   -25.150   -25.150     0.000
O(0)            0.000e+000
   O2                    0.000e+000  0.000e+000   -42.080   -42.080     0.000

------------------------------Saturation indices-------------------------------

	Phase               SI log IAP  log KT

	Aragonite        -2.74  -11.07   -8.34  CaCO3
	Calcite          -2.59  -11.07   -8.48  CaCO3
	CH4(g)          -65.11  -67.97   -2.86  CH4
	CO2(g)           -2.89   -4.36   -1.47  CO2
	H2(g)           -22.00  -25.15   -3.15  H2
	H2O(g)           -1.51   -0.00    1.51  H2O
	O2(g)           -39.19  -42.08   -2.89  O2

Using solution 2.	

-----------------------------Solution composition------------------------------

	Elements           Molality       Moles

	C                2.439e-004  2.439e-004
	Ca               1.000e-004  1.000e-004

----------------------------Description of solution----------------------------

                                       pH  =   7.000      Charge balance
                                       pe  =   4.000      Adjusted to redox equilibrium
       Specific Conductance (uS/cm, 25 oC) = 20
                          Density (g/cm3)  =   0.99706
                        Activity of water  =   1.000
                           Ionic strength  =  2.997e-004
                       Mass of water (kg)  =  1.000e+000
                 Total alkalinity (eq/kg)  =  2.000e-004
                       Total CO2 (mol/kg)  =  2.439e-004
                      Temperature (deg C)  =  25.000
                  Electrical balance (eq)  = -1.302e-012
 Percent error, 100*(Cat-|An|)/(Cat+|An|)  =  -0.00
                               Iterations  =   0
                                  Total H  = 1.110126e+002
                                  Total O  = 5.550690e+001

----------------------------Distribution of species----------------------------

                                                   Log       Log         Log 
   Species                 Molality    Activity  Molality  Activity     Gamma

   OH-                   1.021e-007  1.001e-007    -6.991    -7.000    -0.009
   H+                    1.020e-007  1.000e-007    -6.992    -7.000    -0.008
   H2O                   5.551e+001  1.000e+000     1.744    -0.000     0.000
C(-4)           0.000e+000
   CH4                   0.000e+000  0.000e+000   -67.966   -67.966     0.000
C(4)            2.439e-004
   HCO3-                 1.995e-004  1.956e-004    -3.700    -3.709    -0.009
   CO2                   4.399e-005  4.399e-005    -4.357    -4.357     0.000
   CaHCO3+               2.347e-007  2.301e-007    -6.630    -6.638    -0.009
   CO3-2                 9.927e-008  9.175e-008    -7.003    -7.037    -0.034
   CaCO3                 1.421e-008  1.421e-008    -7.847    -7.847     0.000
Ca              1.000e-004
   Ca+2                  9.975e-005  9.219e-005    -4.001    -4.035    -0.034
   CaHCO3+               2.347e-007  2.301e-007    -6.630    -6.638    -0.009
   CaCO3                 1.421e-008  1.421e-008    -7.847    -7.847     0.000
   CaOH+                 1.561e-010  1.530e-010    -9.807    -9.815    -0.009
H(0)            1.416e-025
   H2                    7.079e-026  7.079e-026   -25.150   -25.150     0.000
O(0)            0.000e+000
   O2                    0.000e+000  0.000e+000   -42.080   -42.080     0.000

------------------------------Saturation indices-------------------------------

	Phase               SI log IAP  log KT

	Aragonite        -2.74  -11.07   -8.34  CaCO3
	Calcite          -2.59  -11.07   -8.48  CaCO3
	CH4(g)          -65.11  -67.97   -2.86  CH4
	CO2(g)           -2.89   -4.36   -1.47  CO2
	H2(g)           -22.00  -25.15   -3.15  H2
	H2O(g)           -1.51   -0.00    1.51  H2O
	O2(g)           -39.19  -42.08   -2.89  O2

Using solution 3.	

-----------------------------Solution composition------------------------------

	Elements           Molality       Moles

	C                2.439e-004  2.439e-004
	Ca               1.000e-004  1.000e-004

----------------------------Description of solution----------------------------

                                       pH  =   7.000      Charge balance
                                       pe  =   4.000      Adjusted to redox equilibrium
       Specific Conductance (uS/cm, 25 oC) = 20
                          Density (g/cm3)  =   0.99706
                        Activity of water  =   1.000
                           Ionic strength  =  2.997e-004
                       Mass of water (kg)  =  1.000e+000
                 Total alkalinity (eq/kg)  =  2.000e-004
                       Total CO2 (mol/kg)  =  2.439e-004
                      Temperature (deg C)  =  25.000
                  Electrical balance (eq)  = -1.302e-012
 Percent error, 100*(Cat-|An|)/(Cat+|An|)  =  -0.00
                               Iterations  =   0
                                  Total H  = 1.110126e+002
                                  Total O  = 5.550690e+001

----------------------------Distribution of species----------------------------

                                                   Log       Log         Log 
   Species                 Molality    Activity  Molality  Activity     Gamma

   OH-                   1.021e-007  1.001e-007    -6.991    -7.000    -0.009
   H+                    1.020e-007  1.000e-007    -6.992    -7.000    -0.008
   H2O                   5.551e+001  1.000e+000     1.744    -0.000     0.000
C(-4)           0.000e+000
   CH4                   0.000e+000  0.000e+000   -67.966   -67.966     0.000
C(4)            2.439e-004
   HCO3-                 1.995e-004  1.956e-004    -3.700    -3.709    -0.009
   CO2                   4.399e-005  4.399e-005    -4.357    -4.357     0.000
   CaHCO3+               2.347e-007  2.301e-007    -6.630    -6.638    -0.009
   CO3-2                 9.927e-008  9.175e-008    -7.003    -7.037    -0.034
   CaCO3                 1.421e-008  1.421e-008    -7.847    -7.847     0.000
Ca              1.000e-004
   Ca+2                  9.975e-005  9.219e-005    -4.001    -4.035    -0.034
   CaHCO3+               2.347e-007  2.301e-007    -6.630    -6.638    -0.009
   CaCO3                 1.421e-008  1.421e-008    -7.847    -7.847     0.000
   CaOH+                 1.561e-010  1.530e-010    -9.807    -9.815    -0.009
H(0)            1.416e-025
   H2                    7.079e-026  7.079e-026   -25.150   -25.150     0.000
O(0)            0.000e+000
   O2                    0.000e+000  0.000e+000   -42.080   -42.080     0.000

------------------------------Saturation indices-------------------------------

	Phase               SI log IAP  log KT

	Aragonite        -2.74  -11.07   -8.34  CaCO3
	Calcite          -2.59  -11.07   -8.48  CaCO3
	CH4(g)          -65.11  -67.97   -2.86  CH4
	CO2(g)           -2.89   -4.36   -1.47  CO2
	H2(g)           -22.00  -25.15   -3.15  H2
	H2O(g)           -1.51   -0.00    1.51  H2O
	O2(g)           -39.19  -42.08   -2.89  O2

Using solution 4.	

-----------------------------Solution composition------------------------------

	Elements           Molality       Moles

	C                2.439e-004  2.439e-004
	Ca               1.000e-004  1.000e-004

----------------------------Description of solution----------------------------

                                       pH  =   7.000      Charge balance
                                       pe  =   4.000      Adjusted to redox equilibrium
       Specific Conductance (uS/cm, 25 oC) = 20
                          Density (g/cm3)  =   0.99706
                        Activity of water  =   1.000
                           Ionic strength  =  2.997e-004
                       Mass of water (kg)  =  1.000e+000
                 Total alkalinity (eq/kg)  =  2.000e-004
                       Total CO2 (mol/kg)  =  2.439e-004
                      Temperature (deg C)  =  25.000
                  Electrical balance (eq)  = -1.302e-012
 Percent error, 100*(Cat-|An|)/(Cat+|An|)  =  -0.00
                               Iterations  =   0
                                  Total H  = 1.110126e+002
                                  Total O  = 5.550690e+001

----------------------------Distribution of species----------------------------

                                                   Log       Log         Log 
   Species                 Molality    Activity  Molality  Activity     Gamma

   OH-                   1.021e-007  1.001e-007    -6.991    -7.000    -0.009
   H+                    1.020e-007  1.000e-007    -6.992    -7.000    -0.008
   H2O                   5.551e+001  1.000e+000     1.744    -0.000     0.000
C(-4)           0.000e+000
   CH4                   0.000e+000  0.000e+000   -67.966   -67.966     0.000
C(4)            2.439e-004
   HCO3-                 1.995e-004  1.956e-004    -3.700    -3.709    -0.009
   CO2                   4.399e-005  4.399e-005    -4.357    -4.357     0.000
   CaHCO3+               2.347e-007  2.301e-007    -6.630    -6.638    -0.009
   CO3-2                 9.927e-008  9.175e-008    -7.003    -7.037    -0.034
   CaCO3                 1.421e-008  1.421e-008    -7.847    -7.847     0.000
Ca              1.000e-004
   Ca+2                  9.975e-005  9.219e-005    -4.001    -4.035    -0.034
   CaHCO3+               2.347e-007  2.301e-007    -6.630    -6.638    -0.009
   CaCO3                 1.421e-008  1.421e-008    -7.847    -7.847     0.000
   CaOH+                 1.561e-010  1.530e-010    -9.807    -9.815    -0.009
H(0)            1.416e-025
   H2                    7.079e-026  7.079e-026   -25.150   -25.150     0.000
O(0)            0.000e+000
   O2                    0.000e+000  0.000e+000   -42.080   -42.080     0.000

------------------------------Saturation indices-------------------------------

	Phase               SI log IAP  log KT

	Aragonite        -2.74  -11.07   -8.34  CaCO3
	Calcite          -2.59  -11.07   -8.48  CaCO3
	CH4(g)          -65.11  -67.97   -2.86  CH4
	CO2(g)           -2.89   -4.36   -1.47  CO2
	H2(g)           -22.00  -25.15   -3.15  H2
	H2O(g)           -1.51   -0.00    1.51  H2O
	O2(g)           -39.19  -42.08   -2.89  O2

Using solution 5.	

-----------------------------Solution composition------------------------------

	Elements           Molality       Moles

	C                2.439e-004  2.439e-004
	Ca               1.000e-004  1.000e-004

----------------------------Description of solution----------------------------

                                       pH  =   7.000      Charge balance
                                       pe  =   4.000      Adjusted to redox equilibrium
       Specific Conductance (uS/cm, 25 oC) = 20
                          Density (g/cm3)  =   0.99706
                        Activity of water  =   1.000
                           Ionic strength  =  2.997e-004
                       Mass of water (kg)  =  1.000e+000
                 Total alkalinity (eq/kg)  =  2.000e-004
                       Total CO2 (mol/kg)  =  2.439e-004
                      Temperature (deg C)  =  25.000
                  Electrical balance (eq)  = -1.302e-012
 Percent error, 100*(Cat-|An|)/(Cat+|An|)  =  -0.00
                               Iterations  =   0
                                  Total H  = 1.110126e+002
                                  Total O  = 5.550690e+001

----------------------------Distribution of species----------------------------

                                                   Log       Log         Log 
   Species                 Molality    Activity  Molality  Activity     Gamma

   OH-                   1.021e-007  1.001e-007    -6.991    -7.000    -0.009
   H+                    1.020e-007  1.000e-007    -6.992    -7.000    -0.008
   H2O                   5.551e+001  1.000e+000     1.744    -0.000     0.000
C(-4)           0.000e+000
   CH4                   0.000e+000  0.000e+000   -67.966   -67.966     0.000
C(4)            2.439e-004
   HCO3-                 1.995e-004  1.956e-004    -3.700    -3.709    -0.009
   CO2                   4.399e-005  4.399e-005    -4.357    -4.357     0.000
   CaHCO3+               2.347e-007  2.301e-007    -6.630    -6.638    -0.009
   CO3-2                 9.927e-008  9.175e-008    -7.003    -7.037    -0.034
   CaCO3                 1.421e-008  1.421e-008    -7.847    -7.847     0.000
Ca              1.000e-004
   Ca+2                  9.975e-005  9.219e-005    -4.001    -4.035    -0.034
   CaHCO3+               2.347e-007  2.301e-007    -6.630    -6.638    -0.009
   CaCO3                 1.421e-008  1.421e-008    -7.847    -7.847     0.000
   CaOH+                 1.561e-010  1.530e-010    -9.807    -9.815    -0.009
H(0)            1.416e-025
   H2                    7.079e-026  7.079e-026   -25.150   -25.150     0.000
O(0)            0.000e+000
   O2                    0.000e+000  0.000e+000   -42.080   -42.080     0.000

------------------------------Saturation indices-------------------------------

	Phase               SI log IAP  log KT

	Aragonite        -2.74  -11.07   -8.34  CaCO3
	Calcite          -2.59  -11.07   -8.48  CaCO3
	CH4(g)          -65.11  -67.97   -2.86  CH4
	CO2(g)           -2.89   -4.36   -1.47  CO2
	H2(g)           -22.00  -25.15   -3.15  H2
	H2O(g)           -1.51   -0.00    1.51  H2O
	O2(g)           -39.19  -42.08   -2.89  O2

Using solution 6.	

-----------------------------Solution composition------------------------------

	Elements           Molality       Moles

	C                2.439e-004  2.439e-004
	Ca               1.000e-004  1.000e-004

----------------------------Description of solution----------------------------

                                       pH  =   7.000      Charge balance
                                       pe  =   4.000      Adjusted to redox equilibrium
       Specific Conductance (uS/cm, 25 oC) = 20
                          Density (g/cm3)  =   0.99706
                        Activity of water  =   1.000
                           Ionic strength  =  2.997e-004
                       Mass of water (kg)  =  1.000e+000
                 Total alkalinity (eq/kg)  =  2.000e-004
                       Total CO2 (mol/kg)  =  2.439e-004
                      Temperature (deg C)  =  25.000
                  Electrical balance (eq)  = -1.302e-012
 Percent error, 100*(Cat-|An|)/(Cat+|An|)  =  -0.00
                               Iterations  =   0
                                  Total H  = 1.110126e+002
                                  Total O  = 5.550690e+001

----------------------------Distribution of species----------------------------

                                                   Log       Log         Log 
   Species                 Molality    Activity  Molality  Activity     Gamma

   OH-                   1.021e-007  1.001e-007    -6.991    -7.000    -0.009
   H+                    1.020e-007  1.000e-007    -6.992    -7.000    -0.008
   H2O                   5.551e+001  1.000e+000     1.744    -0.000     0.000
C(-4)           0.000e+000
   CH4                   0.000e+000  0.000e+000   -67.966   -67.966     0.000
C(4)            2.439e-004
   HCO3-                 1.995e-004  1.956e-004    -3.700    -3.709    -0.009
   CO2                   4.399e-005  4.399e-005    -4.357    -4.357     0.000
   CaHCO3+               2.347e-007  2.301e-007    -6.630    -6.638    -0.009
   CO3-2                 9.927e-008  9.175e-008    -7.003    -7.037    -0.034
   CaCO3                 1.421e-008  1.421e-008    -7.847    -7.847     0.000
Ca              1.000e-004
   Ca+2                  9.975e-005  9.219e-005    -4.001    -4.035    -0.034
   CaHCO3+               2.347e-007  2.301e-007    -6.630    -6.638    -0.009
   CaCO3                 1.421e-008  1.421e-008    -7.847    -7.847     0.000
   CaOH+                 1.561e-010  1.530e-010    -9.807    -9.815    -0.009
H(0)            1.416e-025
   H2                    7.079e-026  7.079e-026   -25.150   -25.150     0.000
O(0)            0.000e+000
   O2                    0.000e+000  0.000e+000   -42.080   -42.080     0.000

------------------------------Saturation indices-------------------------------

	Phase               SI log IAP  log KT

	Aragonite        -2.74  -11.07   -8.34  CaCO3
	Calcite          -2.59  -11.07   -8.48  CaCO3
	CH4(g)          -65.11  -67.97   -2.86  CH4
	CO2(g)           -2.89   -4.36   -1.47  CO2
	H2(g)           -22.00  -25.15   -3.15  H2
	H2O(g)           -1.51   -0.00    1.51  H2O
	O2(g)           -39.19  -42.08   -2.89  O2

Using solution 7.	

-----------------------------Solution composition------------------------------

	Elements           Molality       Moles

	C                2.439e-004  2.439e-004
	Ca               1.000e-004  1.000e-004

----------------------------Description of solution----------------------------

                                       pH  =   7.000      Charge balance
                                       pe  =   4.000      Adjusted to redox equilibrium
       Specific Conductance (uS/cm, 25 oC) = 20
                          Density (g/cm3)  =   0.99706
                        Activity of water  =   1.000
                           Ionic strength  =  2.997e-004
                       Mass of water (kg)  =  1.000e+000
                 Total alkalinity (eq/kg)  =  2.000e-004
                       Total CO2 (mol/kg)  =  2.439e-004
                      Temperature (deg C)  =  25.000
                  Electrical balance (eq)  = -1.302e-012
 Percent error, 100*(Cat-|An|)/(Cat+|An|)  =  -0.00
                               Iterations  =   0
                                  Total H  = 1.110126e+002
                                  Total O  = 5.550690e+001

----------------------------Distribution of species----------------------------

                                                   Log       Log         Log 
   Species                 Molality    Activity  Molality  Activity     Gamma

   OH-                   1.021e-007  1.001e-007    -6.991    -7.000    -0.009
   H+                    1.020e-007  1.000e-007    -6.992    -7.000    -0.008
   H2O                   5.551e+001  1.000e+000     1.744    -0.000     0.000
C(-4)           0.000e+000
   CH4                   0.000e+000  0.000e+000   -67.966   -67.966     0.000
C(4)            2.439e-004
   HCO3-                 1.995e-004  1.956e-004    -3.700    -3.709    -0.009
   CO2                   4.399e-005  4.399e-005    -4.357    -4.357     0.000
   CaHCO3+               2.347e-007  2.301e-007    -6.630    -6.638    -0.009
   CO3-2                 9.927e-008  9.175e-008    -7.003    -7.037    -0.034
   CaCO3                 1.421e-008  1.421e-008    -7.847    -7.847     0.000
Ca              1.000e-004
   Ca+2                  9.975e-005  9.219e-005    -4.001    -4.035    -0.034
   CaHCO3+               2.347e-007  2.301e-007    -6.630    -6.638    -0.009
   CaCO3                 1.421e-008  1.421e-008    -7.847    -7.847     0.000
   CaOH+                 1.561e-010  1.530e-010    -9.807    -9.815    -0.009
H(0)            1.416e-025
   H2                    7.079e-026  7.079e-026   -25.150   -25.150     0.000
O(0)            0.000e+000
   O2                    0.000e+000  0.000e+000   -42.080   -42.080     0.000

------------------------------Saturation indices-------------------------------

	Phase               SI log IAP  log KT

	Aragonite        -2.74  -11.07   -8.34  CaCO3
	Calcite          -2.59  -11.07   -8.48  CaCO3
	CH4(g)          -65.11  -67.97   -2.86  CH4
	CO2(g)           -2.89   -4.36   -1.47  CO2
	H2(g)           -22.00  -25.15   -3.15  H2
	H2O(g)           -1.51   -0.00    1.51  H2O
	O2(g)           -39.19  -42.08   -2.89  O2

Using solution 8.	

-----------------------------Solution composition------------------------------

	Elements           Molality       Moles

	C                2.439e-004  2.439e-004
	Ca               1.000e-004  1.000e-004

----------------------------Description of solution----------------------------

                                       pH  =   7.000      Charge balance
                                       pe  =   4.000      Adjusted to redox equilibrium
       Specific Conductance (uS/cm, 25 oC) = 20
                          Density (g/cm3)  =   0.99706
                        Activity of water  =   1.000
                           Ionic strength  =  2.997e-004
                       Mass of water (kg)  =  1.000e+000
                 Total alkalinity (eq/kg)  =  2.000e-004
                       Total CO2 (mol/kg)  =  2.439e-004
                      Temperature (deg C)  =  25.000
                  Electrical balance (eq)  = -1.302e-012
 Percent error, 100*(Cat-|An|)/(Cat+|An|)  =  -0.00
                               Iterations  =   0
                                  Total H  = 1.110126e+002
                                  Total O  = 5.550690e+001

----------------------------Distribution of species----------------------------

                                                   Log       Log         Log 
   Species                 Molality    Activity  Molality  Activity     Gamma

   OH-                   1.021e-007  1.001e-007    -6.991    -7.000    -0.009
   H+                    1.020e-007  1.000e-007    -6.992    -7.000    -0.008
   H2O                   5.551e+001  1.000e+000     1.744    -0.000     0.000
C(-4)           0.000e+000
   CH4                   0.000e+000  0.000e+000   -67.966   -67.966     0.000
C(4)            2.439e-004
   HCO3-                 1.995e-004  1.956e-004    -3.700    -3.709    -0.009
   CO2                   4.399e-005  4.399e-005    -4.357    -4.357     0.000
   CaHCO3+               2.347e-007  2.301e-007    -6.630    -6.638    -0.009
   CO3-2                 9.927e-008  9.175e-008    -7.003    -7.037    -0.034
   CaCO3                 1.421e-008  1.421e-008    -7.847    -7.847     0.000
Ca              1.000e-004
   Ca+2                  9.975e-005  9.219e-005    -4.001    -4.035    -0.034
   CaHCO3+               2.347e-007  2.301e-007    -6.630    -6.638    -0.009
   CaCO3                 1.421e-008  1.421e-008    -7.847    -7.847     0.000
   CaOH+                 1.561e-010  1.530e-010    -9.807    -9.815    -0.009
H(0)            1.416e-025
   H2                    7.079e-026  7.079e-026   -25.150   -25.150     0.000
O(0)            0.000e+000
   O2                    0.000e+000  0.000e+000   -42.080   -42.080     0.000

------------------------------Saturation indices-------------------------------

	Phase               SI log IAP  log KT

	Aragonite        -2.74  -11.07   -8.34  CaCO3
	Calcite          -2.59  -11.07   -8.48  CaCO3
	CH4(g)          -65.11  -67.97   -2.86  CH4
	CO2(g)           -2.89   -4.36   -1.47  CO2
	H2(g)           -22.00  -25.15   -3.15  H2
	H2O(g)           -1.51   -0.00    1.51  H2O
	O2(g)           -39.19  -42.08   -2.89  O2

Using solution 9.	

-----------------------------Solution composition------------------------------

	Elements           Molality       Moles

	C                2.439e-004  2.439e-004
	Ca               1.000e-004  1.000e-004

----------------------------Description of solution----------------------------

                                       pH  =   7.000      Charge balance
                                       pe  =   4.000      Adjusted to redox equilibrium
       Specific Conductance (uS/cm, 25 oC) = 20
                          Density (g/cm3)  =   0.99706
                        Activity of water  =   1.000
                           Ionic strength  =  2.997e-004
                       Mass of water (kg)  =  1.000e+000
                 Total alkalinity (eq/kg)  =  2.000e-004
                       Total CO2 (mol/kg)  =  2.439e-004
                      Temperature (deg C)  =  25.000
                  Electrical balance (eq)  = -1.302e-012
 Percent error, 100*(Cat-|An|)/(Cat+|An|)  =  -0.00
                               Iterations  =   0
                                  Total H  = 1.110126e+002
                                  Total O  = 5.550690e+001

----------------------------Distribution of species----------------------------

                                                   Log       Log         Log 
   Species                 Molality    Activity  Molality  Activity     Gamma

   OH-                   1.021e-007  1.001e-007    -6.991    -7.000    -0.009
   H+                    1.020e-007  1.000e-007    -6.992    -7.000    -0.008
   H2O                   5.551e+001  1.000e+000     1.744    -0.000     0.000
C(-4)           0.000e+000
   CH4                   0.000e+000  0.000e+000   -67.966   -67.966     0.000
C(4)            2.439e-004
   HCO3-                 1.995e-004  1.956e-004    -3.700    -3.709    -0.009
   CO2                   4.399e-005  4.399e-005    -4.357    -4.357     0.000
   CaHCO3+               2.347e-007  2.301e-007    -6.630    -6.638    -0.009
   CO3-2                 9.927e-008  9.175e-008    -7.003    -7.037    -0.034
   CaCO3                 1.421e-008  1.421e-008    -7.847    -7.847     0.000
Ca              1.000e-004
   Ca+2                  9.975e-005  9.219e-005    -4.001    -4.035    -0.034
   CaHCO3+               2.347e-007  2.301e-007    -6.630    -6.638    -0.009
   CaCO3                 1.421e-008  1.421e-008    -7.847    -7.847     0.000
   CaOH+                 1.561e-010  1.530e-010    -9.807    -9.815    -0.009
H(0)            1.416e-025
   H2                    7.079e-026  7.079e-026   -25.150   -25.150     0.000
O(0)            0.000e+000
   O2                    0.000e+000  0.000e+000   -42.080   -42.080     0.000

------------------------------Saturation indices-------------------------------

	Phase               SI log IAP  log KT

	Aragonite        -2.74  -11.07   -8.34  CaCO3
	Calcite          -2.59  -11.07   -8.48  CaCO3
	CH4(g)          -65.11  -67.97   -2.86  CH4
	CO2(g)           -2.89   -4.36   -1.47  CO2
	H2(g)           -22.00  -25.15   -3.15  H2
	H2O(g)           -1.51   -0.00    1.51  H2O
	O2(g)           -39.19  -42.08   -2.89  O2

Using solution 10.	

-----------------------------Solution composition------------------------------

	Elements           Molality       Moles

	C                2.439e-004  2.439e-004
	Ca               1.000e-004  1.000e-004

----------------------------Description of solution----------------------------

                                       pH  =   7.000      Charge balance
                                       pe  =   4.000      Adjusted to redox equilibrium
       Specific Conductance (uS/cm, 25 oC) = 20
                          Density (g/cm3)  =   0.99706
                        Activity of water  =   1.000
                           Ionic strength  =  2.997e-004
                       Mass of water (kg)  =  1.000e+000
                 Total alkalinity (eq/kg)  =  2.000e-004
                       Total CO2 (mol/kg)  =  2.439e-004
                      Temperature (deg C)  =  25.000
                  Electrical balance (eq)  = -1.302e-012
 Percent error, 100*(Cat-|An|)/(Cat+|An|)  =  -0.00
                               Iterations  =   0
                                  Total H  = 1.110126e+002
                                  Total O  = 5.550690e+001

----------------------------Distribution of species----------------------------

                                                   Log       Log         Log 
   Species                 Molality    Activity  Molality  Activity     Gamma

   OH-                   1.021e-007  1.001e-007    -6.991    -7.000    -0.009
   H+                    1.020e-007  1.000e-007    -6.992    -7.000    -0.008
   H2O                   5.551e+001  1.000e+000     1.744    -0.000     0.000
C(-4)           0.000e+000
   CH4                   0.000e+000  0.000e+000   -67.966   -67.966     0.000
C(4)            2.439e-004
   HCO3-                 1.995e-004  1.956e-004    -3.700    -3.709    -0.009
   CO2                   4.399e-005  4.399e-005    -4.357    -4.357     0.000
   CaHCO3+               2.347e-007  2.301e-007    -6.630    -6.638    -0.009
   CO3-2                 9.927e-008  9.175e-008    -7.003    -7.037    -0.034
   CaCO3                 1.421e-008  1.421e-008    -7.847    -7.847     0.000
Ca              1.000e-004
   Ca+2                  9.975e-005  9.219e-005    -4.001    -4.035    -0.034
   CaHCO3+               2.347e-007  2.301e-007    -6.630    -6.638    -0.009
   CaCO3                 1.421e-008  1.421e-008    -7.847    -7.847     0.000
   CaOH+                 1.561e-010  1.530e-010    -9.807    -9.815    -0.009
H(0)            1.416e-025
   H2                    7.079e-026  7.079e-026   -25.150   -25.150     0.000
O(0)            0.000e+000
   O2                    0.000e+000  0.000e+000   -42.080   -42.080     0.000

------------------------------Saturation indices-------------------------------

	Phase               SI log IAP  log KT

	Aragonite        -2.74  -11.07   -8.34  CaCO3
	Calcite          -2.59  -11.07   -8.48  CaCO3
	CH4(g)          -65.11  -67.97   -2.86  CH4
	CO2(g)           -2.89   -4.36   -1.47  CO2
	H2(g)           -22.00  -25.15   -3.15  H2
	H2O(g)           -1.51   -0.00    1.51  H2O
	O2(g)           -39.19  -42.08   -2.89  O2

Transport step   1. Multicomponent diffusion run   1.

Transport step   1. Multicomponent diffusion run   2.

Transport step   1. Multicomponent diffusion run   3.

Transport step   1. Multicomponent diffusion run   4.

Transport step   1. Multicomponent diffusion run   5.

Transport step   1. Multicomponent diffusion run   6.

Transport step   1. Multicomponent diffusion run   7.

Transport step   1. Multicomponent diffusion run   8.

Transport step   1. Multicomponent diffusion run   9.

Transport step   1. Multicomponent diffusion run  10.

Transport step   1. Multicomponent diffusion run  11.

Transport step   1. Multicomponent diffusion run  12.

Transport step   1. Multicomponent diffusion run  13.

Transport step   1. Multicomponent diffusion run  14.

Transport step   1. Multicomponent diffusion run  15.

Transport step   1. Multicomponent diffusion run  16.

Transport step   1. Multicomponent diffusion run  17.

Transport step   1. Multicomponent diffusion run  18.

Transport step   1. Multicomponent diffusion run  19.

Transport step   1. Multicomponent diffusion run  20.

Transport step   1. Multicomponent diffusion run  21.

Using mix 1.	 

Mixture 1.	 

	 0.000e+000 Solution 0	Solution after simulation 2.                           
	 0.000e+000 Solution 2	Solution after simulation 2.                           
	 1.000e+000 Solution 1	Solution after simulation 2.                           

-----------------------------Solution composition------------------------------

	Elements           Molality       Moles

	C                1.183e-004  1.183e-004
	Ca               7.250e-005  7.250e-005
	Cl               6.345e-002  6.345e-002
	Na               6.341e-002  6.341e-002

----------------------------Description of solution----------------------------

                                       pH  =   7.132      Charge balance
                                       pe  =  11.301      Adjusted to redox equilibrium
       Specific Conductance (uS/cm, 25 oC) = 7021
                          Density (g/cm3)  =   0.99967
                        Activity of water  =   0.998
                           Ionic strength  =  6.362e-002
                       Mass of water (kg)  =  1.000e+000
                 Total alkalinity (eq/kg)  =  1.049e-004
                       Total CO2 (mol/kg)  =  1.183e-004
                      Temperature (deg C)  =  25.000
                  Electrical balance (eq)  = -2.145e-013
 Percent error, 100*(Cat-|An|)/(Cat+|An|)  =  -0.00
                               Iterations  =   3
                                  Total H  = 1.110125e+002
                                  Total O  = 5.550656e+001

----------------------------Distribution of species----------------------------

                                                   Log       Log         Log 
   Species                 Molality    Activity  Molality  Activity     Gamma

   OH-                   1.701e-007  1.352e-007    -6.769    -6.869    -0.100
   H+                    8.751e-008  7.387e-008    -7.058    -7.132    -0.074
   H2O                   5.551e+001  9.978e-001     1.744    -0.001     0.000
C(-4)           0.000e+000
   CH4                   0.000e+000  0.000e+000  -127.936  -127.930     0.006
C(4)            1.183e-004
   HCO3-                 1.020e-004  8.316e-005    -3.991    -4.080    -0.089
   CO2                   1.364e-005  1.384e-005    -4.865    -4.859     0.006
   NaHCO3                2.366e-006  2.401e-006    -5.626    -5.620     0.006
   CO3-2                 1.196e-007  5.280e-008    -6.922    -7.277    -0.355
   NaCO3-                6.250e-008  5.047e-008    -7.204    -7.297    -0.093
   CaHCO3+               4.184e-008  3.411e-008    -7.378    -7.467    -0.089
   CaCO3                 2.810e-009  2.851e-009    -8.551    -8.545     0.006
Ca              7.250e-005
   Ca+2                  7.245e-005  3.215e-005    -4.140    -4.493    -0.353
   CaHCO3+               4.184e-008  3.411e-008    -7.378    -7.467    -0.089
   CaCO3                 2.810e-009  2.851e-009    -8.551    -8.545     0.006
   CaOH+                 8.925e-011  7.207e-011   -10.049   -10.142    -0.093
Cl              6.345e-002
   Cl-                   6.345e-002  5.055e-002    -1.198    -1.296    -0.099
H(0)            0.000e+000
   H2                    0.000e+000  0.000e+000   -40.022   -40.016     0.006
Na              6.341e-002
   Na+                   6.340e-002  5.133e-002    -1.198    -1.290    -0.092
   NaHCO3                2.366e-006  2.401e-006    -5.626    -5.620     0.006
   NaCO3-                6.250e-008  5.047e-008    -7.204    -7.297    -0.093
   NaOH                  4.515e-009  4.581e-009    -8.345    -8.339     0.006
O(0)            8.795e-013
   O2                    4.398e-013  4.463e-013   -12.357   -12.350     0.006

------------------------------Saturation indices-------------------------------

	Phase               SI log IAP  log KT

	Aragonite        -3.43  -11.77   -8.34  CaCO3
	Calcite          -3.29  -11.77   -8.48  CaCO3
	CH4(g)         -125.07 -127.93   -2.86  CH4
	CO2(g)           -3.39   -4.86   -1.47  CO2
	H2(g)           -36.87  -40.02   -3.15  H2
	H2O(g)           -1.51   -0.00    1.51  H2O
	Halite           -4.17   -2.59    1.58  NaCl
	O2(g)            -9.46  -12.35   -2.89  O2

Using mix 2.	 

Mixture 2.	 

	 0.000e+000 Solution 1	Solution after simulation 2.                           
	 0.000e+000 Solution 3	Solution after simulation 2.                           
	 1.000e+000 Solution 2	Solution after simulation 2.                           

-----------------------------Solution composition------------------------------

	Elements           Molality       Moles

	C                2.079e-004  2.079e-004
	Ca               9.086e-005  9.086e-005
	Cl               1.937e-002  1.937e-002
	Na               1.936e-002  1.936e-002

----------------------------Description of solution----------------------------

                                       pH  =   7.015      Charge balance
                                       pe  =  11.527      Adjusted to redox equilibrium
       Specific Conductance (uS/cm, 25 oC) = 2264
                          Density (g/cm3)  =   0.99786
                        Activity of water  =   0.999
                           Ionic strength  =  1.963e-002
                       Mass of water (kg)  =  1.000e+000
                 Total alkalinity (eq/kg)  =  1.752e-004
                       Total CO2 (mol/kg)  =  2.079e-004
                      Temperature (deg C)  =  25.000
                  Electrical balance (eq)  = -1.364e-012
 Percent error, 100*(Cat-|An|)/(Cat+|An|)  =  -0.00
                               Iterations  =   3
                                  Total H  = 1.110126e+002
                                  Total O  = 5.550681e+001

----------------------------Distribution of species----------------------------

                                                   Log       Log         Log 
   Species                 Molality    Activity  Molality  Activity     Gamma

   OH-                   1.194e-007  1.036e-007    -6.923    -6.984    -0.061
   H+                    1.084e-007  9.653e-008    -6.965    -7.015    -0.050
   H2O                   5.551e+001  9.993e-001     1.744    -0.000     0.000
C(-4)           0.000e+000
   CH4                   0.000e+000  0.000e+000  -128.433  -128.431     0.002
C(4)            2.079e-004
   HCO3-                 1.733e-004  1.519e-004    -3.761    -3.818    -0.057
   CO2                   3.285e-005  3.299e-005    -4.484    -4.482     0.002
   NaHCO3                1.438e-006  1.445e-006    -5.842    -5.840     0.002
   CO3-2                 1.250e-007  7.381e-008    -6.903    -7.132    -0.229
   CaHCO3+               1.185e-007  1.038e-007    -6.926    -6.984    -0.057
   NaCO3-                2.666e-008  2.324e-008    -7.574    -7.634    -0.060
   CaCO3                 6.613e-009  6.643e-009    -8.180    -8.178     0.002
Ca              9.086e-005
   Ca+2                  9.073e-005  5.357e-005    -4.042    -4.271    -0.229
   CaHCO3+               1.185e-007  1.038e-007    -6.926    -6.984    -0.057
   CaCO3                 6.613e-009  6.643e-009    -8.180    -8.178     0.002
   CaOH+                 1.056e-010  9.205e-011    -9.976   -10.036    -0.060
Cl              1.937e-002
   Cl-                   1.937e-002  1.682e-002    -1.713    -1.774    -0.061
H(0)            0.000e+000
   H2                    0.000e+000  0.000e+000   -40.237   -40.235     0.002
Na              1.936e-002
   Na+                   1.936e-002  1.691e-002    -1.713    -1.772    -0.059
   NaHCO3                1.438e-006  1.445e-006    -5.842    -5.840     0.002
   NaCO3-                2.666e-008  2.324e-008    -7.574    -7.634    -0.060
   NaOH                  1.151e-009  1.157e-009    -8.939    -8.937     0.002
O(0)            2.446e-012
   O2                    1.223e-012  1.229e-012   -11.912   -11.911     0.002

------------------------------Saturation indices-------------------------------

	Phase               SI log IAP  log KT

	Aragonite        -3.07  -11.40   -8.34  CaCO3
	Calcite          -2.92  -11.40   -8.48  CaCO3
	CH4(g)         -125.57 -128.43   -2.86  CH4
	CO2(g)           -3.01   -4.48   -1.47  CO2
	H2(g)           -37.09  -40.24   -3.15  H2
	H2O(g)           -1.51   -0.00    1.51  H2O
	Halite           -5.13   -3.55    1.58  NaCl
	O2(g)            -9.02  -11.91   -2.89  O2

Using mix 3.	 

Mixture 3.	 

	 0.000e+000 Solution 2	Solution after simulation 2.                           
	 0.000e+000 Solution 4	Solution after simulation 2.                           
	 1.000e+000 Solution 3	Solution after simulation 2.                           

-----------------------------Solution composition------------------------------

	Elements           Molality       Moles

	C                2.281e-004  2.281e-004
	Ca               9.958e-005  9.958e-005
	Cl               4.277e-003  4.277e-003
	Na               4.265e-003  4.265e-003

----------------------------Description of solution----------------------------

                                       pH  =   6.978      Charge balance
                                       pe  =  11.610      Adjusted to redox equilibrium
       Specific Conductance (uS/cm, 25 oC) = 534
                          Density (g/cm3)  =   0.99724
                        Activity of water  =   1.000
                           Ionic strength  =  4.563e-003
                       Mass of water (kg)  =  1.000e+000
                 Total alkalinity (eq/kg)  =  1.871e-004
                       Total CO2 (mol/kg)  =  2.281e-004
                      Temperature (deg C)  =  25.000
                  Electrical balance (eq)  =  5.227e-013
 Percent error, 100*(Cat-|An|)/(Cat+|An|)  =   0.00
                               Iterations  =   3
                                  Total H  = 1.110126e+002
                                  Total O  = 5.550686e+001

----------------------------Distribution of species----------------------------

                                                   Log       Log         Log 
   Species                 Molality    Activity  Molality  Activity     Gamma

   H+                    1.125e-007  1.053e-007    -6.949    -6.978    -0.029
   OH-                   1.023e-007  9.508e-008    -6.990    -7.022    -0.032
   H2O                   5.551e+001  9.998e-001     1.744    -0.000     0.000
C(-4)           0.000e+000
   CH4                   0.000e+000  0.000e+000  -128.698  -128.697     0.000
C(4)            2.281e-004
   HCO3-                 1.863e-004  1.736e-004    -3.730    -3.760    -0.031
   CO2                   4.106e-005  4.110e-005    -4.387    -4.386     0.000
   NaHCO3                3.870e-007  3.874e-007    -6.412    -6.412     0.000
   CaHCO3+               1.780e-007  1.658e-007    -6.750    -6.780    -0.031
   CO3-2                 1.026e-007  7.734e-008    -6.989    -7.112    -0.123
   CaCO3                 9.715e-009  9.726e-009    -8.013    -8.012     0.000
   NaCO3-                6.145e-009  5.715e-009    -8.211    -8.243    -0.032
Ca              9.958e-005
   Ca+2                  9.939e-005  7.485e-005    -4.003    -4.126    -0.123
   CaHCO3+               1.780e-007  1.658e-007    -6.750    -6.780    -0.031
   CaCO3                 9.715e-009  9.726e-009    -8.013    -8.012     0.000
   CaOH+                 1.269e-010  1.180e-010    -9.897    -9.928    -0.032
Cl              4.277e-003
   Cl-                   4.277e-003  3.974e-003    -2.369    -2.401    -0.032
H(0)            0.000e+000
   H2                    0.000e+000  0.000e+000   -40.326   -40.325     0.000
Na              4.265e-003
   Na+                   4.265e-003  3.968e-003    -2.370    -2.401    -0.031
   NaHCO3                3.870e-007  3.874e-007    -6.412    -6.412     0.000
   NaCO3-                6.145e-009  5.715e-009    -8.211    -8.243    -0.032
   NaOH                  2.487e-010  2.490e-010    -9.604    -9.604     0.000
O(0)            3.726e-012
   O2                    1.863e-012  1.865e-012   -11.730   -11.729     0.000

------------------------------Saturation indices-------------------------------

	Phase               SI log IAP  log KT

	Aragonite        -2.90  -11.24   -8.34  CaCO3
	Calcite          -2.76  -11.24   -8.48  CaCO3
	CH4(g)         -125.84 -128.70   -2.86  CH4
	CO2(g)           -2.92   -4.39   -1.47  CO2
	H2(g)           -37.18  -40.33   -3.15  H2
	H2O(g)           -1.51   -0.00    1.51  H2O
	Halite           -6.38   -4.80    1.58  NaCl
	O2(g)            -8.84  -11.73   -2.89  O2

Using mix 4.	 

Mixture 4.	 

	 0.000e+000 Solution 3	Solution after simulation 2.                           
	 0.000e+000 Solution 5	Solution after simulation 2.                           
	 1.000e+000 Solution 4	Solution after simulation 2.                           

-----------------------------Solution composition------------------------------

	Elements           Molality       Moles

	C                2.310e-004  2.310e-004
	Ca               1.055e-004  1.055e-004
	Cl               7.321e-004  7.321e-004
	Na               7.088e-004  7.088e-004

----------------------------Description of solution----------------------------

                                       pH  =   6.971      Charge balance
                                       pe  =  11.655      Adjusted to redox equilibrium
       Specific Conductance (uS/cm, 25 oC) = 109
                          Density (g/cm3)  =   0.99709
                        Activity of water  =   1.000
                           Ionic strength  =  1.025e-003
                       Mass of water (kg)  =  1.000e+000
                 Total alkalinity (eq/kg)  =  1.876e-004
                       Total CO2 (mol/kg)  =  2.310e-004
                      Temperature (deg C)  =  25.000
                  Electrical balance (eq)  =  1.891e-013
 Percent error, 100*(Cat-|An|)/(Cat+|An|)  =   0.00
                               Iterations  =   3
                                  Total H  = 1.110126e+002
                                  Total O  = 5.550687e+001

----------------------------Distribution of species----------------------------

                                                   Log       Log         Log 
   Species                 Molality    Activity  Molality  Activity     Gamma

   H+                    1.107e-007  1.070e-007    -6.956    -6.971    -0.015
   OH-                   9.701e-008  9.356e-008    -7.013    -7.029    -0.016
   H2O                   5.551e+001  1.000e+000     1.744    -0.000     0.000
C(-4)           0.000e+000
   CH4                   0.000e+000  0.000e+000  -128.977  -128.977     0.000
C(4)            2.310e-004
   HCO3-                 1.872e-004  1.806e-004    -3.728    -3.743    -0.015
   CO2                   4.344e-005  4.345e-005    -4.362    -4.362     0.000
   CaHCO3+               2.180e-007  2.104e-007    -6.662    -6.677    -0.015
   CO3-2                 9.126e-008  7.917e-008    -7.040    -7.101    -0.062
   NaHCO3                6.943e-008  6.945e-008    -7.158    -7.158     0.000
   CaCO3                 1.214e-008  1.214e-008    -7.916    -7.916     0.000
   NaCO3-                1.045e-009  1.008e-009    -8.981    -8.997    -0.016
Ca              1.055e-004
   Ca+2                  1.052e-004  9.129e-005    -3.978    -4.040    -0.062
   CaHCO3+               2.180e-007  2.104e-007    -6.662    -6.677    -0.015
   CaCO3                 1.214e-008  1.214e-008    -7.916    -7.916     0.000
   CaOH+                 1.468e-010  1.416e-010    -9.833    -9.849    -0.016
Cl              7.321e-004
   Cl-                   7.321e-004  7.061e-004    -3.135    -3.151    -0.016
H(0)            0.000e+000
   H2                    0.000e+000  0.000e+000   -40.401   -40.401     0.000
Na              7.088e-004
   Na+                   7.087e-004  6.837e-004    -3.150    -3.165    -0.016
   NaHCO3                6.943e-008  6.945e-008    -7.158    -7.158     0.000
   NaCO3-                1.045e-009  1.008e-009    -8.981    -8.997    -0.016
   NaOH                  4.221e-011  4.222e-011   -10.375   -10.374     0.000
O(0)            5.292e-012
   O2                    2.646e-012  2.647e-012   -11.577   -11.577     0.000

------------------------------Saturation indices-------------------------------

	Phase               SI log IAP  log KT

	Aragonite        -2.80  -11.14   -8.34  CaCO3
	Calcite          -2.66  -11.14   -8.48  CaCO3
	CH4(g)         -126.12 -128.98   -2.86  CH4
	CO2(g)           -2.89   -4.36   -1.47  CO2
	H2(g)           -37.25  -40.40   -3.15  H2
	H2O(g)           -1.51   -0.00    1.51  H2O
	Halite           -7.90   -6.32    1.58  NaCl
	O2(g)            -8.68  -11.58   -2.89  O2

Using mix 5.	 

Mixture 5.	 

	 0.000e+000 Solution 4	Solution after simulation 2.                           
	 0.000e+000 Solution 6	Solution after simulation 2.                           
	 1.000e+000 Solution 5	Solution after simulation 2.                           

-----------------------------Solution composition------------------------------

	Elements           Molality       Moles

	C                2.352e-004  2.352e-004
	Ca               1.051e-004  1.051e-004
	Cl               1.062e-004  1.062e-004
	Na               8.724e-005  8.724e-005

----------------------------Description of solution----------------------------

                                       pH  =   6.980      Charge balance
                                       pe  =  11.678      Adjusted to redox equilibrium
       Specific Conductance (uS/cm, 25 oC) = 32
                          Density (g/cm3)  =   0.99706
                        Activity of water  =   1.000
                           Ionic strength  =  4.024e-004
                       Mass of water (kg)  =  1.000e+000
                 Total alkalinity (eq/kg)  =  1.914e-004
                       Total CO2 (mol/kg)  =  2.352e-004
                      Temperature (deg C)  =  25.000
                  Electrical balance (eq)  = -1.282e-012
 Percent error, 100*(Cat-|An|)/(Cat+|An|)  =  -0.00
                               Iterations  =   4
                                  Total H  = 1.110126e+002
                                  Total O  = 5.550688e+001

----------------------------Distribution of species----------------------------

                                                   Log       Log         Log 
   Species                 Molality    Activity  Molality  Activity     Gamma

   H+                    1.071e-007  1.047e-007    -6.970    -6.980    -0.010
   OH-                   9.781e-008  9.559e-008    -7.010    -7.020    -0.010
   H2O                   5.551e+001  1.000e+000     1.744    -0.000     0.000
C(-4)           0.000e+000
   CH4                   0.000e+000  0.000e+000  -129.228  -129.228     0.000
C(4)            2.352e-004
   HCO3-                 1.909e-004  1.866e-004    -3.719    -3.729    -0.010
   CO2                   4.394e-005  4.394e-005    -4.357    -4.357     0.000
   CaHCO3+               2.333e-007  2.281e-007    -6.632    -6.642    -0.010
   CO3-2                 9.152e-008  8.357e-008    -7.038    -7.078    -0.039
   CaCO3                 1.345e-008  1.345e-008    -7.871    -7.871     0.000
   NaHCO3                8.947e-009  8.947e-009    -8.048    -8.048     0.000
   NaCO3-                1.358e-010  1.327e-010    -9.867    -9.877    -0.010
Ca              1.051e-004
   Ca+2                  1.049e-004  9.578e-005    -3.979    -4.019    -0.039
   CaHCO3+               2.333e-007  2.281e-007    -6.632    -6.642    -0.010
   CaCO3                 1.345e-008  1.345e-008    -7.871    -7.871     0.000
   CaOH+                 1.553e-010  1.518e-010    -9.809    -9.819    -0.010
Cl              1.062e-004
   Cl-                   1.062e-004  1.038e-004    -3.974    -3.984    -0.010
H(0)            0.000e+000
   H2                    0.000e+000  0.000e+000   -40.465   -40.465     0.000
Na              8.724e-005
   Na+                   8.723e-005  8.526e-005    -4.059    -4.069    -0.010
   NaHCO3                8.947e-009  8.947e-009    -8.048    -8.048     0.000
   NaCO3-                1.358e-010  1.327e-010    -9.867    -9.877    -0.010
   NaOH                  5.378e-012  5.379e-012   -11.269   -11.269     0.000
O(0)            7.105e-012
   O2                    3.552e-012  3.553e-012   -11.449   -11.449     0.000

------------------------------Saturation indices-------------------------------

	Phase               SI log IAP  log KT

	Aragonite        -2.76  -11.10   -8.34  CaCO3
	Calcite          -2.62  -11.10   -8.48  CaCO3
	CH4(g)         -126.37 -129.23   -2.86  CH4
	CO2(g)           -2.89   -4.36   -1.47  CO2
	H2(g)           -37.32  -40.47   -3.15  H2
	H2O(g)           -1.51   -0.00    1.51  H2O
	Halite           -9.64   -8.05    1.58  NaCl
	O2(g)            -8.56  -11.45   -2.89  O2

Using mix 6.	 

Mixture 6.	 

	 0.000e+000 Solution 5	Solution after simulation 2.                           
	 0.000e+000 Solution 7	Solution after simulation 2.                           
	 1.000e+000 Solution 6	Solution after simulation 2.                           

-----------------------------Solution composition------------------------------

	Elements           Molality       Moles

	C                2.411e-004  2.411e-004
	Ca               1.016e-004  1.016e-004
	Cl               1.388e-005  1.388e-005
	Na               7.780e-006  7.780e-006

----------------------------Description of solution----------------------------

                                       pH  =   6.994      Charge balance
                                       pe  =  11.673      Adjusted to redox equilibrium
       Specific Conductance (uS/cm, 25 oC) = 21
                          Density (g/cm3)  =   0.99706
                        Activity of water  =   1.000
                           Ionic strength  =  3.124e-004
                       Mass of water (kg)  =  1.000e+000
                 Total alkalinity (eq/kg)  =  1.972e-004
                       Total CO2 (mol/kg)  =  2.411e-004
                      Temperature (deg C)  =  25.000
                  Electrical balance (eq)  = -1.287e-012
 Percent error, 100*(Cat-|An|)/(Cat+|An|)  =  -0.00
                               Iterations  =   4
                                  Total H  = 1.110126e+002
                                  Total O  = 5.550690e+001

----------------------------Distribution of species----------------------------

                                                   Log       Log         Log 
   Species                 Molality    Activity  Molality  Activity     Gamma

   H+                    1.035e-007  1.015e-007    -6.985    -6.994    -0.009
   OH-                   1.007e-007  9.863e-008    -6.997    -7.006    -0.009
   H2O                   5.551e+001  1.000e+000     1.744    -0.000     0.000
C(-4)           0.000e+000
   CH4                   0.000e+000  0.000e+000  -129.297  -129.297     0.000
C(4)            2.411e-004
   HCO3-                 1.967e-004  1.928e-004    -3.706    -3.715    -0.009
   CO2                   4.399e-005  4.400e-005    -4.357    -4.357     0.000
   CaHCO3+               2.348e-007  2.301e-007    -6.629    -6.638    -0.009
   CO3-2                 9.655e-008  8.909e-008    -7.015    -7.050    -0.035
   CaCO3                 1.400e-008  1.400e-008    -7.854    -7.854     0.000
   NaHCO3                8.266e-010  8.266e-010    -9.083    -9.083     0.000
   NaCO3-                1.291e-011  1.265e-011   -10.889   -10.898    -0.009
Ca              1.016e-004
   Ca+2                  1.014e-004  9.355e-005    -3.994    -4.029    -0.035
   CaHCO3+               2.348e-007  2.301e-007    -6.629    -6.638    -0.009
   CaCO3                 1.400e-008  1.400e-008    -7.854    -7.854     0.000
   CaOH+                 1.561e-010  1.530e-010    -9.807    -9.815    -0.009
Cl              1.388e-005
   Cl-                   1.388e-005  1.360e-005    -4.858    -4.866    -0.009
H(0)            0.000e+000
   H2                    0.000e+000  0.000e+000   -40.483   -40.483     0.000
Na              7.780e-006
   Na+                   7.780e-006  7.624e-006    -5.109    -5.118    -0.009
   NaHCO3                8.266e-010  8.266e-010    -9.083    -9.083     0.000
   NaCO3-                1.291e-011  1.265e-011   -10.889   -10.898    -0.009
   NaOH                  4.963e-013  4.963e-013   -12.304   -12.304     0.000
O(0)            7.700e-012
   O2                    3.850e-012  3.850e-012   -11.415   -11.414     0.000

------------------------------Saturation indices-------------------------------

	Phase               SI log IAP  log KT

	Aragonite        -2.74  -11.08   -8.34  CaCO3
	Calcite          -2.60  -11.08   -8.48  CaCO3
	CH4(g)         -126.44 -129.30   -2.86  CH4
	CO2(g)           -2.89   -4.36   -1.47  CO2
	H2(g)           -37.33  -40.48   -3.15  H2
	H2O(g)           -1.51   -0.00    1.51  H2O
	Halite          -11.57   -9.98    1.58  NaCl
	O2(g)            -8.52  -11.41   -2.89  O2

Using mix 7.	 

Mixture 7.	 

	 0.000e+000 Solution 6	Solution after simulation 2.                           
	 0.000e+000 Solution 8	Solution after simulation 2.                           
	 1.000e+000 Solution 7	Solution after simulation 2.                           

-----------------------------Solution composition------------------------------

	Elements           Molality       Moles

	C                2.434e-004  2.434e-004
	Ca               1.003e-004  1.003e-004
	Cl               1.551e-006  1.551e-006
	Na               5.376e-007  5.376e-007

----------------------------Description of solution----------------------------

                                       pH  =   6.999      Charge balance
                                       pe  =  11.643      Adjusted to redox equilibrium
       Specific Conductance (uS/cm, 25 oC) = 20
                          Density (g/cm3)  =   0.99706
                        Activity of water  =   1.000
                           Ionic strength  =  3.010e-004
                       Mass of water (kg)  =  1.000e+000
                 Total alkalinity (eq/kg)  =  1.995e-004
                       Total CO2 (mol/kg)  =  2.434e-004
                      Temperature (deg C)  =  25.000
                  Electrical balance (eq)  = -1.289e-012
 Percent error, 100*(Cat-|An|)/(Cat+|An|)  =  -0.00
                               Iterations  =   4
                                  Total H  = 1.110126e+002
                                  Total O  = 5.550690e+001

----------------------------Distribution of species----------------------------

                                                   Log       Log         Log 
   Species                 Molality    Activity  Molality  Activity     Gamma

   H+                    1.022e-007  1.003e-007    -6.990    -6.999    -0.008
   OH-                   1.019e-007  9.985e-008    -6.992    -7.001    -0.009
   H2O                   5.551e+001  1.000e+000     1.744    -0.000     0.000
C(-4)           0.000e+000
   CH4                   0.000e+000  0.000e+000  -129.104  -129.104     0.000
C(4)            2.434e-004
   HCO3-                 1.990e-004  1.952e-004    -3.701    -3.710    -0.009
   CO2                   4.399e-005  4.399e-005    -4.357    -4.357     0.000
   CaHCO3+               2.347e-007  2.301e-007    -6.630    -6.638    -0.009
   CO3-2                 9.879e-008  9.129e-008    -7.005    -7.040    -0.034
   CaCO3                 1.417e-008  1.417e-008    -7.849    -7.849     0.000
   NaHCO3                5.783e-011  5.783e-011   -10.238   -10.238     0.000
   NaCO3-                9.138e-013  8.958e-013   -12.039   -12.048    -0.009
Ca              1.003e-004
   Ca+2                  1.000e-004  9.241e-005    -4.000    -4.034    -0.034
   CaHCO3+               2.347e-007  2.301e-007    -6.630    -6.638    -0.009
   CaCO3                 1.417e-008  1.417e-008    -7.849    -7.849     0.000
   CaOH+                 1.560e-010  1.530e-010    -9.807    -9.815    -0.009
Cl              1.551e-006
   Cl-                   1.551e-006  1.521e-006    -5.809    -5.818    -0.009
H(0)            0.000e+000
   H2                    0.000e+000  0.000e+000   -40.434   -40.434     0.000
Na              5.376e-007
   Na+                   5.375e-007  5.270e-007    -6.270    -6.278    -0.009
   NaHCO3                5.783e-011  5.783e-011   -10.238   -10.238     0.000
   NaCO3-                9.138e-013  8.958e-013   -12.039   -12.048    -0.009
   NaOH                  3.472e-014  3.473e-014   -13.459   -13.459     0.000
O(0)            6.163e-012
   O2                    3.081e-012  3.082e-012   -11.511   -11.511     0.000

------------------------------Saturation indices-------------------------------

	Phase               SI log IAP  log KT

	Aragonite        -2.74  -11.07   -8.34  CaCO3
	Calcite          -2.59  -11.07   -8.48  CaCO3
	CH4(g)         -126.24 -129.10   -2.86  CH4
	CO2(g)           -2.89   -4.36   -1.47  CO2
	H2(g)           -37.28  -40.43   -3.15  H2
	H2O(g)           -1.51   -0.00    1.51  H2O
	Halite          -13.68  -12.10    1.58  NaCl
	O2(g)            -8.62  -11.51   -2.89  O2

Using mix 8.	 

Mixture 8.	 

	 0.000e+000 Solution 7	Solution after simulation 2.                           
	 0.000e+000 Solution 9	Solution after simulation 2.                           
	 1.000e+000 Solution 8	Solution after simulation 2.                           

-----------------------------Solution composition------------------------------

	Elements           Molality       Moles

	C                2.438e-004  2.438e-004
	Ca               1.000e-004  1.000e-004
	Cl               1.437e-007  1.437e-007
	Na               3.028e-008  3.028e-008

----------------------------Description of solution----------------------------

                                       pH  =   7.000      Charge balance
                                       pe  =  11.564      Adjusted to redox equilibrium
       Specific Conductance (uS/cm, 25 oC) = 20
                          Density (g/cm3)  =   0.99706
                        Activity of water  =   1.000
                           Ionic strength  =  2.998e-004
                       Mass of water (kg)  =  1.000e+000
                 Total alkalinity (eq/kg)  =  1.999e-004
                       Total CO2 (mol/kg)  =  2.438e-004
                      Temperature (deg C)  =  25.000
                  Electrical balance (eq)  = -3.249e-012
 Percent error, 100*(Cat-|An|)/(Cat+|An|)  =  -0.00
                               Iterations  =   4
                                  Total H  = 1.110126e+002
                                  Total O  = 5.550690e+001

----------------------------Distribution of species----------------------------

                                                   Log       Log         Log 
   Species                 Molality    Activity  Molality  Activity     Gamma

   OH-                   1.021e-007  1.001e-007    -6.991    -7.000    -0.009
   H+                    1.020e-007  1.000e-007    -6.991    -7.000    -0.008
   H2O                   5.551e+001  1.000e+000     1.744    -0.000     0.000
C(-4)           0.000e+000
   CH4                   0.000e+000  0.000e+000  -128.477  -128.476     0.000
C(4)            2.438e-004
   HCO3-                 1.995e-004  1.956e-004    -3.700    -3.709    -0.009
   CO2                   4.399e-005  4.399e-005    -4.357    -4.357     0.000
   CaHCO3+               2.347e-007  2.301e-007    -6.630    -6.638    -0.009
   CO3-2                 9.922e-008  9.170e-008    -7.003    -7.038    -0.034
   CaCO3                 1.420e-008  1.420e-008    -7.848    -7.848     0.000
   NaHCO3                3.265e-012  3.265e-012   -11.486   -11.486     0.000
   NaCO3-                5.170e-014  5.069e-014   -13.286   -13.295    -0.009
Ca              1.000e-004
   Ca+2                  9.978e-005  9.221e-005    -4.001    -4.035    -0.034
   CaHCO3+               2.347e-007  2.301e-007    -6.630    -6.638    -0.009
   CaCO3                 1.420e-008  1.420e-008    -7.848    -7.848     0.000
   CaOH+                 1.561e-010  1.530e-010    -9.807    -9.815    -0.009
Cl              1.437e-007
   Cl-                   1.437e-007  1.409e-007    -6.843    -6.851    -0.009
H(0)            0.000e+000
   H2                    0.000e+000  0.000e+000   -40.278   -40.278     0.000
Na              3.028e-008
   Na+                   3.028e-008  2.968e-008    -7.519    -7.527    -0.009
   NaHCO3                3.265e-012  3.265e-012   -11.486   -11.486     0.000
   NaCO3-                5.170e-014  5.069e-014   -13.286   -13.295    -0.009
   NaOH                  1.961e-015  1.961e-015   -14.708   -14.708     0.000
O(0)            2.993e-012
   O2                    1.496e-012  1.496e-012   -11.825   -11.825     0.000

------------------------------Saturation indices-------------------------------

	Phase               SI log IAP  log KT

	Aragonite        -2.74  -11.07   -8.34  CaCO3
	Calcite          -2.59  -11.07   -8.48  CaCO3
	CH4(g)         -125.62 -128.48   -2.86  CH4
	CO2(g)           -2.89   -4.36   -1.47  CO2
	H2(g)           -37.13  -40.28   -3.15  H2
	H2O(g)           -1.51   -0.00    1.51  H2O
	Halite          -15.96  -14.38    1.58  NaCl
	O2(g)            -8.93  -11.82   -2.89  O2

Using mix 9.	 

Mixture 9.	 

	 0.000e+000 Solution 8	Solution after simulation 2.                           
	 0.000e+000 Solution 10	Solution after simulation 2.                           
	 1.000e+000 Solution 9	Solution after simulation 2.                           

-----------------------------Solution composition------------------------------

	Elements           Molality       Moles

	C                2.439e-004  2.439e-004
	Ca               1.000e-004  1.000e-004
	Cl               1.102e-008  1.102e-008
	Na               1.414e-009  1.414e-009

----------------------------Description of solution----------------------------

                                       pH  =   7.000      Charge balance
                                       pe  =  11.449      Adjusted to redox equilibrium
       Specific Conductance (uS/cm, 25 oC) = 20
                          Density (g/cm3)  =   0.99706
                        Activity of water  =   1.000
                           Ionic strength  =  2.997e-004
                       Mass of water (kg)  =  1.000e+000
                 Total alkalinity (eq/kg)  =  2.000e-004
                       Total CO2 (mol/kg)  =  2.439e-004
                      Temperature (deg C)  =  25.000
                  Electrical balance (eq)  = -1.385e-012
 Percent error, 100*(Cat-|An|)/(Cat+|An|)  =  -0.00
                               Iterations  =   4
                                  Total H  = 1.110126e+002
                                  Total O  = 5.550690e+001

----------------------------Distribution of species----------------------------

                                                   Log       Log         Log 
   Species                 Molality    Activity  Molality  Activity     Gamma

   OH-                   1.021e-007  1.001e-007    -6.991    -7.000    -0.009
   H+                    1.020e-007  1.000e-007    -6.992    -7.000    -0.008
   H2O                   5.551e+001  1.000e+000     1.744    -0.000     0.000
C(-4)           0.000e+000
   CH4                   0.000e+000  0.000e+000  -127.557  -127.557     0.000
C(4)            2.439e-004
   HCO3-                 1.995e-004  1.956e-004    -3.700    -3.709    -0.009
   CO2                   4.399e-005  4.399e-005    -4.357    -4.357     0.000
   CaHCO3+               2.347e-007  2.301e-007    -6.630    -6.638    -0.009
   CO3-2                 9.927e-008  9.175e-008    -7.003    -7.037    -0.034
   CaCO3                 1.421e-008  1.421e-008    -7.847    -7.847     0.000
   NaHCO3                1.525e-013  1.525e-013   -12.817   -12.817     0.000
   NaCO3-                2.416e-015  2.368e-015   -14.617   -14.626    -0.009
Ca              1.000e-004
   Ca+2                  9.975e-005  9.219e-005    -4.001    -4.035    -0.034
   CaHCO3+               2.347e-007  2.301e-007    -6.630    -6.638    -0.009
   CaCO3                 1.421e-008  1.421e-008    -7.847    -7.847     0.000
   CaOH+                 1.561e-010  1.530e-010    -9.807    -9.815    -0.009
Cl              1.102e-008
   Cl-                   1.102e-008  1.081e-008    -7.958    -7.966    -0.009
H(0)            0.000e+000
   H2                    0.000e+000  0.000e+000   -40.048   -40.048     0.000
Na              1.414e-009
   Na+                   1.414e-009  1.386e-009    -8.850    -8.858    -0.009
   NaHCO3                1.525e-013  1.525e-013   -12.817   -12.817     0.000
   NaCO3-                2.416e-015  2.368e-015   -14.617   -14.626    -0.009
   NaOH                  9.158e-017  9.158e-017   -16.038   -16.038     0.000
O(0)            1.038e-012
   O2                    5.190e-013  5.190e-013   -12.285   -12.285     0.000

------------------------------Saturation indices-------------------------------

	Phase               SI log IAP  log KT

	Aragonite        -2.74  -11.07   -8.34  CaCO3
	Calcite          -2.59  -11.07   -8.48  CaCO3
	CH4(g)         -124.70 -127.56   -2.86  CH4
	CO2(g)           -2.89   -4.36   -1.47  CO2
	H2(g)           -36.90  -40.05   -3.15  H2
	H2O(g)           -1.51   -0.00    1.51  H2O
	Halite          -18.41  -16.82    1.58  NaCl
	O2(g)            -9.39  -12.28   -2.89  O2

Using mix 10.	 

Mixture 10.	 

	 0.000e+000 Solution 9	Solution after simulation 2.                           
	 0.000e+000 Solution 11	                                                       
	 1.000e+000 Solution 10	Solution after simulation 2.                           

-----------------------------Solution composition------------------------------

	Elements           Molality       Moles

	C                2.439e-004  2.439e-004
	Ca               1.000e-004  1.000e-004
	Cl               7.404e-010  7.404e-010
	Na               5.686e-011  5.686e-011

----------------------------Description of solution----------------------------

                                       pH  =   7.000      Charge balance
                                       pe  =  11.374      Adjusted to redox equilibrium
[...]

	C                2.391e-004  1.219e-004
	Ca               1.049e-004  5.352e-005
	Cl               3.167e-007  1.615e-007
	Na               3.427e-008  1.748e-008

----------------------------Description of solution----------------------------

                                       pH  =   7.234      Charge balance
                                       pe  =  -4.063      Adjusted to redox equilibrium
       Specific Conductance (uS/cm, 25 oC) = 21
                          Density (g/cm3)  =   0.99706
                        Activity of water  =   1.000
                           Ionic strength  =  3.146e-004
                       Mass of water (kg)  =  5.100e-001
                 Total alkalinity (eq/kg)  =  2.097e-004
                       Total CO2 (mol/kg)  =  2.363e-004
                      Temperature (deg C)  =  25.000
                  Electrical balance (eq)  = -6.973e-008
 Percent error, 100*(Cat-|An|)/(Cat+|An|)  =  -0.03
                               Iterations  =   0
                                  Total H  = 5.661391e+001
                                  Total O  = 2.830725e+001

----------------------------Distribution of species----------------------------

                                                   Log       Log         Log 
   Species                 Molality    Activity  Molality  Activity     Gamma

   OH-                   1.751e-007  1.716e-007    -6.757    -6.765    -0.009
   H+                    5.950e-008  5.834e-008    -7.225    -7.234    -0.009
   H2O                   1.088e+002  1.000e+000     2.037    -0.000     0.000
C(-4)           2.832e-006
   CH4                   2.832e-006  2.832e-006    -5.548    -5.548     0.000
C(4)            2.363e-004
   HCO3-                 2.090e-004  2.048e-004    -3.680    -3.689    -0.009
   CO2                   2.686e-005  2.686e-005    -4.571    -4.571     0.000
   CaHCO3+               2.574e-007  2.523e-007    -6.589    -6.598    -0.009
   CO3-2                 1.785e-007  1.646e-007    -6.748    -6.783    -0.035
   CaCO3                 2.670e-008  2.670e-008    -7.574    -7.573     0.000
   NaHCO3                3.867e-012  3.867e-012   -11.413   -11.413     0.000
   NaCO3-                1.051e-013  1.029e-013   -12.979   -12.987    -0.009
Ca              1.049e-004
   Ca+2                  1.047e-004  9.655e-005    -3.980    -4.015    -0.035
   CaHCO3+               2.574e-007  2.523e-007    -6.589    -6.598    -0.009
   CaCO3                 2.670e-008  2.670e-008    -7.574    -7.573     0.000
   CaOH+                 2.803e-010  2.746e-010    -9.552    -9.561    -0.009
Cl              3.167e-007
   Cl-                   3.167e-007  3.103e-007    -6.499    -6.508    -0.009
H(0)            6.444e-010
   H2                    3.222e-010  3.222e-010    -9.492    -9.492     0.000
Na              3.427e-008
   Na+                   3.427e-008  3.358e-008    -7.465    -7.474    -0.009
   NaHCO3                3.867e-012  3.867e-012   -11.413   -11.413     0.000
   NaCO3-                1.051e-013  1.029e-013   -12.979   -12.987    -0.009
   NaOH                  3.803e-015  3.803e-015   -14.420   -14.420     0.000
O(0)            0.000e+000
   O2                    0.000e+000  0.000e+000   -73.396   -73.396     0.000

------------------------------Saturation indices-------------------------------

	Phase               SI log IAP  log KT

	Aragonite        -2.46  -10.80   -8.34  CaCO3
	Calcite          -2.32  -10.80   -8.48  CaCO3
	CH4(g)           -2.69   -5.55   -2.86  CH4
	CO2(g)           -3.10   -4.57   -1.47  CO2
	H2(g)            -6.34   -9.49   -3.15  H2
	H2O(g)           -1.51   -0.00    1.51  H2O
	Halite          -15.56  -13.98    1.58  NaCl
	O2(g)           -70.50  -73.40   -2.89  O2

Using mix 8.	 
Using surface 8.	Surface assemblage after simulation 4.

Mixture 8.	 

	 0.000e+000 Solution 7	Solution after simulation 4.                           
	 0.000e+000 Solution 9	Solution after simulation 4.                           
	 1.000e+000 Solution 8	Solution after simulation 4.                           

------------------------------Surface composition------------------------------

Su            
	-9.028e-009  Surface + diffuse layer charge, eq
	-1.000e+000  Surface charge, eq
	-2.894e+000  sigma, C/m**2
	-4.086e-001  psi, V
	 1.590e+001  -F*psi/RT
	 8.063e+006  exp(-F*psi/RT)
	 3.334e+004  specific area, m**2/g
	 3.334e+004  m**2 for  1.000e+000 g

	Water in diffuse layer: 4.988e-001 kg, 100.0% of total DDL-water.
	Radius of total pore:   5.999e-008 m; of free pore: 4.247e-008 m.

	Total moles in diffuse layer (excluding water), Donnan calculation 

	Element       	     Moles
	C             	 3.3789e-005
	Ca            	 5.0000e-001
	Cl            	 1.4801e-010
	H             	 1.8076e-005
	Na            	 9.0728e-008
	O             	 8.0216e-005

Su            
	 1.000e+000  moles
	                                   Mole                     Log
	Species               Moles    Fraction    Molality    Molality

	Su-              1.000e+000       1.000  1.995e+000       0.300

-----------------------------Solution composition------------------------------

	Elements           Molality       Moles

	C                2.430e-004  1.218e-004
	Ca               1.006e-004  5.043e-005
	Cl               2.966e-008  1.487e-008
	Na               1.820e-009  9.124e-010

----------------------------Description of solution----------------------------

                                       pH  =   7.025      Charge balance
                                       pe  =  -3.690      Adjusted to redox equilibrium
       Specific Conductance (uS/cm, 25 oC) = 20
                          Density (g/cm3)  =   0.99706
                        Activity of water  =   1.000
                           Ionic strength  =  3.015e-004
                       Mass of water (kg)  =  5.012e-001
                 Total alkalinity (eq/kg)  =  2.012e-004
                       Total CO2 (mol/kg)  =  2.428e-004
                      Temperature (deg C)  =  25.000
                  Electrical balance (eq)  =  3.153e-009
 Percent error, 100*(Cat-|An|)/(Cat+|An|)  =   0.00
                               Iterations  =   1
                                  Total H  = 5.564435e+001
                                  Total O  = 2.782247e+001

----------------------------Distribution of species----------------------------

                                                   Log       Log         Log 
   Species                 Molality    Activity  Molality  Activity     Gamma

   OH-                   1.081e-007  1.060e-007    -6.966    -6.975    -0.009
   H+                    9.630e-008  9.445e-008    -7.016    -7.025    -0.008
   H2O                   1.107e+002  1.000e+000     2.044    -0.000     0.000
C(-4)           2.159e-007
   CH4                   2.159e-007  2.159e-007    -6.666    -6.666     0.000
C(4)            2.428e-004
   HCO3-                 2.007e-004  1.968e-004    -3.697    -3.706    -0.009
   CO2                   4.178e-005  4.178e-005    -4.379    -4.379     0.000
   CaHCO3+               2.374e-007  2.328e-007    -6.625    -6.633    -0.009
   CO3-2                 1.057e-007  9.770e-008    -6.976    -7.010    -0.034
   CaCO3                 1.522e-008  1.522e-008    -7.818    -7.818     0.000
   NaHCO3                1.974e-013  1.974e-013   -12.705   -12.705     0.000
   NaCO3-                3.311e-015  3.246e-015   -14.480   -14.489    -0.009
Ca              1.006e-004
   Ca+2                  1.004e-004  9.272e-005    -3.998    -4.033    -0.034
   CaHCO3+               2.374e-007  2.328e-007    -6.625    -6.633    -0.009
   CaCO3                 1.522e-008  1.522e-008    -7.818    -7.818     0.000
   CaOH+                 1.662e-010  1.629e-010    -9.779    -9.788    -0.009
Cl              2.966e-008
   Cl-                   2.966e-008  2.908e-008    -7.528    -7.536    -0.009
H(0)            3.032e-010
   H2                    1.516e-010  1.516e-010    -9.819    -9.819     0.000
Na              1.820e-009
   Na+                   1.820e-009  1.784e-009    -8.740    -8.749    -0.009
   NaHCO3                1.974e-013  1.974e-013   -12.705   -12.705     0.000
   NaCO3-                3.311e-015  3.246e-015   -14.480   -14.489    -0.009
   NaOH                  1.248e-016  1.248e-016   -15.904   -15.904     0.000
O(0)            0.000e+000
   O2                    0.000e+000  0.000e+000   -72.741   -72.741     0.000

------------------------------Saturation indices-------------------------------

	Phase               SI log IAP  log KT

	Aragonite        -2.71  -11.04   -8.34  CaCO3
	Calcite          -2.56  -11.04   -8.48  CaCO3
	CH4(g)           -3.81   -6.67   -2.86  CH4
	CO2(g)           -2.91   -4.38   -1.47  CO2
	H2(g)            -6.67   -9.82   -3.15  H2
	H2O(g)           -1.51   -0.00    1.51  H2O
	Halite          -17.87  -16.29    1.58  NaCl
	O2(g)           -69.85  -72.74   -2.89  O2

Using mix 9.	 
Using surface 9.	Surface assemblage after simulation 4.

Mixture 9.	 

	 0.000e+000 Solution 8	Solution after simulation 4.                           
	 0.000e+000 Solution 10	Solution after simulation 4.                           
	 1.000e+000 Solution 9	Solution after simulation 4.                           

------------------------------Surface composition------------------------------

Su            
	 5.013e-009  Surface + diffuse layer charge, eq
	-1.000e+000  Surface charge, eq
	-2.894e+000  sigma, C/m**2
	-4.087e-001  psi, V
	 1.591e+001  -F*psi/RT
	 8.105e+006  exp(-F*psi/RT)
	 3.334e+004  specific area, m**2/g
	 3.334e+004  m**2 for  1.000e+000 g

	Water in diffuse layer: 4.998e-001 kg, 100.0% of total DDL-water.
	Radius of total pore:   5.999e-008 m; of free pore: 4.243e-008 m.

	Total moles in diffuse layer (excluding water), Donnan calculation 

	Element       	     Moles
	C             	 3.4637e-005
	Ca            	 5.0000e-001
	Cl            	 1.1461e-011
	H             	 1.7860e-005
	Na            	 4.0701e-009
	O             	 8.2032e-005

Su            
	 1.000e+000  moles
	                                   Mole                     Log
	Species               Moles    Fraction    Molality    Molality

	Su-              1.000e+000       1.000  1.999e+000       0.301

-----------------------------Solution composition------------------------------

	Elements           Molality       Moles

	C                2.437e-004  1.219e-004
	Ca               1.001e-004  5.007e-005
	Cl               2.295e-009  1.148e-009
	Na               8.137e-011  4.070e-011

----------------------------Description of solution----------------------------

                                       pH  =   7.002      Charge balance
                                       pe  =  -3.511      Adjusted to redox equilibrium
       Specific Conductance (uS/cm, 25 oC) = 20
                          Density (g/cm3)  =   0.99706
                        Activity of water  =   1.000
                           Ionic strength  =  2.999e-004
                       Mass of water (kg)  =  5.002e-001
                 Total alkalinity (eq/kg)  =  2.001e-004
                       Total CO2 (mol/kg)  =  2.437e-004
                      Temperature (deg C)  =  25.000
                  Electrical balance (eq)  =  5.464e-008
 Percent error, 100*(Cat-|An|)/(Cat+|An|)  =   0.03
                               Iterations  =   0
                                  Total H  = 5.552560e+001
                                  Total O  = 2.776309e+001

----------------------------Distribution of species----------------------------

                                                   Log       Log         Log 
   Species                 Molality    Activity  Molality  Activity     Gamma

   OH-                   1.027e-007  1.007e-007    -6.988    -6.997    -0.009
   H+                    1.014e-007  9.943e-008    -6.994    -7.002    -0.008
   H2O                   1.110e+002  1.000e+000     2.045    -0.000     0.000
C(-4)           1.265e-008
   CH4                   1.265e-008  1.265e-008    -7.898    -7.898     0.000
C(4)            2.437e-004
   HCO3-                 1.996e-004  1.957e-004    -3.700    -3.708    -0.009
   CO2                   4.375e-005  4.376e-005    -4.359    -4.359     0.000
   CaHCO3+               2.350e-007  2.304e-007    -6.629    -6.637    -0.009
   CO3-2                 9.989e-008  9.232e-008    -7.000    -7.035    -0.034
   CaCO3                 1.431e-008  1.431e-008    -7.844    -7.844     0.000
   NaHCO3                8.779e-015  8.779e-015   -14.057   -14.057     0.000
   NaCO3-                1.399e-016  1.371e-016   -15.854   -15.863    -0.009
Ca              1.001e-004
   Ca+2                  9.985e-005  9.228e-005    -4.001    -4.035    -0.034
   CaHCO3+               2.350e-007  2.304e-007    -6.629    -6.637    -0.009
   CaCO3                 1.431e-008  1.431e-008    -7.844    -7.844     0.000
   CaOH+                 1.571e-010  1.540e-010    -9.804    -9.812    -0.009
Cl              2.295e-009
   Cl-                   2.295e-009  2.250e-009    -8.639    -8.648    -0.009
H(0)            1.475e-010
   H2                    7.373e-011  7.373e-011   -10.132   -10.132     0.000
Na              8.137e-011
   Na+                   8.136e-011  7.976e-011   -10.090   -10.098    -0.009
   NaHCO3                8.779e-015  8.779e-015   -14.057   -14.057     0.000
   NaCO3-                1.399e-016  1.371e-016   -15.854   -15.863    -0.009
   NaOH                  5.300e-018  5.300e-018   -17.276   -17.276     0.000
O(0)            0.000e+000
   O2                    0.000e+000  0.000e+000   -72.115   -72.115     0.000

------------------------------Saturation indices-------------------------------

	Phase               SI log IAP  log KT

	Aragonite        -2.73  -11.07   -8.34  CaCO3
	Calcite          -2.59  -11.07   -8.48  CaCO3
	CH4(g)           -5.04   -7.90   -2.86  CH4
	CO2(g)           -2.89   -4.36   -1.47  CO2
	H2(g)            -6.98  -10.13   -3.15  H2
	H2O(g)           -1.51   -0.00    1.51  H2O
	Halite          -20.33  -18.75    1.58  NaCl
	O2(g)           -69.22  -72.12   -2.89  O2

Using mix 10.	 
Using surface 10.	Surface assemblage after simulation 4.

Mixture 10.	 

	 0.000e+000 Solution 9	Solution after simulation 4.                           
	 0.000e+000 Solution 11	                                                       
	 1.000e+000 Solution 10	Solution after simulation 4.                           

------------------------------Surface composition------------------------------

Su            
	 1.085e-012  Surface + diffuse layer charge, eq
	-1.000e+000  Surface charge, eq
	-2.894e+000  sigma, C/m**2
	-4.087e-001  psi, V
	 1.591e+001  -F*psi/RT
	 8.110e+006  exp(-F*psi/RT)
	 3.334e+004  specific area, m**2/g
	 3.334e+004  m**2 for  1.000e+000 g

	Water in diffuse layer: 5.000e-001 kg, 100.0% of total DDL-water.
	Radius of total pore:   5.999e-008 m; of free pore: 4.242e-008 m.

	Total moles in diffuse layer (excluding water), Donnan calculation 

	Element       	     Moles
	C             	 3.4738e-005
	Ca            	 5.0000e-001
	Cl            	 7.8019e-013
	H             	 1.7856e-005
	Na            	 1.5567e-010
	O             	 8.2238e-005

Su            
	 1.000e+000  moles
	                                   Mole                     Log
	Species               Moles    Fraction    Molality    Molality

	Su-              1.000e+000       1.000  2.000e+000       0.301

-----------------------------Solution composition------------------------------

	Elements           Molality       Moles

	C                2.438e-004  1.219e-004
	Ca               1.000e-004  5.002e-005
	Cl               1.562e-010  7.812e-011
	Na               3.110e-012  1.555e-012

----------------------------Description of solution----------------------------

                                       pH  =   7.000      Charge balance
                                       pe  =  12.205      Adjusted to redox equilibrium
       Specific Conductance (uS/cm, 25 oC) = 20
                          Density (g/cm3)  =   0.99706
                        Activity of water  =   1.000
                           Ionic strength  =  2.997e-004
                       Mass of water (kg)  =  5.000e-001
                 Total alkalinity (eq/kg)  =  2.000e-004
                       Total CO2 (mol/kg)  =  2.438e-004
                      Temperature (deg C)  =  25.000
                  Electrical balance (eq)  =  3.471e-008
 Percent error, 100*(Cat-|An|)/(Cat+|An|)  =   0.02
                               Iterations  =   3
                                  Total H  = 5.551063e+001
                                  Total O  = 2.775561e+001

----------------------------Distribution of species----------------------------

                                                   Log       Log         Log 
   Species                 Molality    Activity  Molality  Activity     Gamma

   OH-                   1.021e-007  1.001e-007    -6.991    -6.999    -0.009
   H+                    1.019e-007  9.998e-008    -6.992    -7.000    -0.008
   H2O                   1.110e+002  1.000e+000     2.045    -0.000     0.000
C(-4)           0.000e+000
   CH4                   0.000e+000  0.000e+000  -133.610  -133.610     0.000
C(4)            2.438e-004
   HCO3-                 1.995e-004  1.956e-004    -3.700    -3.709    -0.009
   CO2                   4.397e-005  4.398e-005    -4.357    -4.357     0.000
   CaHCO3+               2.348e-007  2.302e-007    -6.629    -6.638    -0.009
   CO3-2                 9.929e-008  9.177e-008    -7.003    -7.037    -0.034
   CaCO3                 1.422e-008  1.422e-008    -7.847    -7.847     0.000
   NaHCO3                3.354e-016  3.354e-016   -15.474   -15.474     0.000
   NaCO3-                5.315e-018  5.210e-018   -17.275   -17.283    -0.009
Ca              1.000e-004
   Ca+2                  9.978e-005  9.222e-005    -4.001    -4.035    -0.034
   CaHCO3+               2.348e-007  2.302e-007    -6.629    -6.638    -0.009
   CaCO3                 1.422e-008  1.422e-008    -7.847    -7.847     0.000
   CaOH+                 1.561e-010  1.531e-010    -9.806    -9.815    -0.009
Cl              1.562e-010
   Cl-                   1.562e-010  1.531e-010    -9.806    -9.815    -0.009
H(0)            0.000e+000
   H2                    0.000e+000  0.000e+000   -41.561   -41.561     0.000
Na              3.110e-012
   Na+                   3.110e-012  3.049e-012   -11.507   -11.516    -0.009
   NaHCO3                3.354e-016  3.354e-016   -15.474   -15.474     0.000
   NaCO3-                5.315e-018  5.210e-018   -17.275   -17.283    -0.009
   NaOH                  2.015e-019  2.015e-019   -18.696   -18.696     0.000
O(0)            1.104e-009
   O2                    5.518e-010  5.518e-010    -9.258    -9.258     0.000

------------------------------Saturation indices-------------------------------

	Phase               SI log IAP  log KT

	Aragonite        -2.74  -11.07   -8.34  CaCO3
	Calcite          -2.59  -11.07   -8.48  CaCO3
	CH4(g)         -130.75 -133.61   -2.86  CH4
	CO2(g)           -2.89   -4.36   -1.47  CO2
	H2(g)           -38.41  -41.56   -3.15  H2
	H2O(g)           -1.51   -0.00    1.51  H2O
	Halite          -22.91  -21.33    1.58  NaCl
	O2(g)            -6.37   -9.26   -2.89  O2

------------------
End of simulation.
------------------

------------------------------------
Reading input data for simulation 5.
------------------------------------

-----------
End of run.
-----------

