   Input file: donly
  Output file: donly.out
Database file: ../database/phreeqc.dat

------------------
Reading data base.
------------------

	SOLUTION_MASTER_SPECIES
	SOLUTION_SPECIES
	PHASES
	EXCHANGE_MASTER_SPECIES
	EXCHANGE_SPECIES
	SURFACE_MASTER_SPECIES
	SURFACE_SPECIES
	RATES
	END
------------------------------------
Reading input data for simulation 1.
------------------------------------

	DATABASE ../database/phreeqc.dat
	SOLUTION_SPREAD
	    units    mg/l
	 Number	 S(6)	 Alkalinity	 N(5)	   Cl	   Ca	   Mg	   Na	    K	   pH
	      	     	    as HCO3	     	     	     	     	     	     	     
	      0	  .03	       3038	  .05	 28.9	 50.5	 37.5	 1040	 47.4	 8.37
	   1-100	  380	        527	  .33	   15	 53.6	 23.8	  300	 17.5	 7.51
	END
-------------------------------------------
Beginning of initial solution calculations.
-------------------------------------------

Initial solution 0.	

-----------------------------Solution composition------------------------------

	Elements           Molality       Moles

	Alkalinity       5.000e-002  5.000e-002
	Ca               1.265e-003  1.265e-003
	Cl               8.186e-004  8.186e-004
	K                1.217e-003  1.217e-003
	Mg               1.549e-003  1.549e-003
	N(5)             3.585e-006  3.585e-006
	Na               4.543e-002  4.543e-002
	S(6)             3.136e-007  3.136e-007

----------------------------Description of solution----------------------------

                                       pH  =   8.370    
                                       pe  =   4.000    
       Specific Conductance (uS/cm, 25 oC) = 4161
                          Density (g/cm3)  =   1.00012
                        Activity of water  =   0.998
                           Ionic strength  =  5.179e-002
                       Mass of water (kg)  =  1.000e+000
                    Total carbon (mol/kg)  =  4.867e-002
                       Total CO2 (mol/kg)  =  4.867e-002
                      Temperature (deg C)  =  25.000
                  Electrical balance (eq)  =  1.454e-003
 Percent error, 100*(Cat-|An|)/(Cat+|An|)  =   1.48
                               Iterations  =   7
                                  Total H  = 1.110591e+002
                                  Total O  = 5.565189e+001

----------------------------Distribution of species----------------------------

                                                   Log       Log         Log 
   Species                 Molality    Activity  Molality  Activity     Gamma

   OH-                   2.895e-006  2.343e-006    -5.538    -5.630    -0.092
   H+                    5.004e-009  4.266e-009    -8.301    -8.370    -0.069
   H2O                   5.551e+001  9.984e-001     1.744    -0.001     0.000
C(4)            4.867e-002
   HCO3-                 4.539e-002  3.753e-002    -1.343    -1.426    -0.083
   CO3-2                 8.827e-004  4.126e-004    -3.054    -3.385    -0.330
   NaHCO3                7.594e-004  7.685e-004    -3.120    -3.114     0.005
   CO2                   3.562e-004  3.605e-004    -3.448    -3.443     0.005
   NaCO3-                3.414e-004  2.798e-004    -3.467    -3.553    -0.087
   MgHCO3+               2.761e-004  2.262e-004    -3.559    -3.645    -0.087
   CaCO3                 2.551e-004  2.582e-004    -3.593    -3.588     0.005
   CaHCO3+               2.157e-004  1.783e-004    -3.666    -3.749    -0.083
   MgCO3                 2.004e-004  2.028e-004    -3.698    -3.693     0.005
Ca              1.265e-003
   Ca+2                  7.945e-004  3.725e-004    -3.100    -3.429    -0.329
   CaCO3                 2.551e-004  2.582e-004    -3.593    -3.588     0.005
   CaHCO3+               2.157e-004  1.783e-004    -3.666    -3.749    -0.083
   CaOH+                 1.766e-008  1.447e-008    -7.753    -7.840    -0.087
   CaSO4                 8.826e-009  8.931e-009    -8.054    -8.049     0.005
   CaHSO4+               2.724e-016  2.232e-016   -15.565   -15.651    -0.087
Cl              8.186e-004
   Cl-                   8.186e-004  6.637e-004    -3.087    -3.178    -0.091
H(0)            2.546e-028
   H2                    1.273e-028  1.288e-028   -27.895   -27.890     0.005
K               1.217e-003
   K+                    1.217e-003  9.870e-004    -2.915    -3.006    -0.091
   KSO4-                 1.017e-009  8.334e-010    -8.993    -9.079    -0.087
   KOH                   7.915e-010  8.009e-010    -9.102    -9.096     0.005
Mg              1.549e-003
   Mg+2                  1.072e-003  5.152e-004    -2.970    -3.288    -0.318
   MgHCO3+               2.761e-004  2.262e-004    -3.559    -3.645    -0.087
   MgCO3                 2.004e-004  2.028e-004    -3.698    -3.693     0.005
   MgOH+                 5.342e-007  4.378e-007    -6.272    -6.359    -0.087
   MgSO4                 1.434e-008  1.451e-008    -7.843    -7.838     0.005
N(5)            3.585e-006
   NO3-                  3.585e-006  2.883e-006    -5.446    -5.540    -0.095
Na              4.543e-002
   Na+                   4.433e-002  3.642e-002    -1.353    -1.439    -0.085
   NaHCO3                7.594e-004  7.685e-004    -3.120    -3.114     0.005
   NaCO3-                3.414e-004  2.798e-004    -3.467    -3.553    -0.087
   NaOH                  5.565e-008  5.631e-008    -7.255    -7.249     0.005
   NaSO4-                2.677e-008  2.193e-008    -7.572    -7.659    -0.087
O(0)            4.948e-037
   O2                    2.474e-037  2.504e-037   -36.607   -36.601     0.005
S(6)            3.136e-007
   SO4-2                 2.627e-007  1.202e-007    -6.581    -6.920    -0.340
   NaSO4-                2.677e-008  2.193e-008    -7.572    -7.659    -0.087
   MgSO4                 1.434e-008  1.451e-008    -7.843    -7.838     0.005
   CaSO4                 8.826e-009  8.931e-009    -8.054    -8.049     0.005
   KSO4-                 1.017e-009  8.334e-010    -8.993    -9.079    -0.087
   HSO4-                 6.082e-014  4.984e-014   -13.216   -13.302    -0.087
   CaHSO4+               2.724e-016  2.232e-016   -15.565   -15.651    -0.087

------------------------------Saturation indices-------------------------------

	Phase               SI log IAP  log KT

	Anhydrite        -5.99  -10.35   -4.36  CaSO4
	Aragonite         1.52   -6.81   -8.34  CaCO3
	Calcite           1.67   -6.81   -8.48  CaCO3
	CO2(g)           -1.98   -3.44   -1.47  CO2
	Dolomite          3.60  -13.49  -17.09  CaMg(CO3)2
	Gypsum           -5.77  -10.35   -4.58  CaSO4:2H2O
	H2(g)           -24.74  -27.89   -3.15  H2
	H2O(g)           -1.51   -0.00    1.51  H2O
	Halite           -6.20   -4.62    1.58  NaCl
	O2(g)           -33.71  -36.60   -2.89  O2

Initial solution 1.	

-----------------------------Solution composition------------------------------

	Elements           Molality       Moles

	Alkalinity       8.648e-003  8.648e-003
	Ca               1.339e-003  1.339e-003
	Cl               4.237e-004  4.237e-004
	K                4.481e-004  4.481e-004
	Mg               9.802e-004  9.802e-004
	N(5)             2.359e-005  2.359e-005
	Na               1.307e-002  1.307e-002
	S(6)             3.961e-003  3.961e-003

----------------------------Description of solution----------------------------

                                       pH  =   7.510    
                                       pe  =   4.000    
       Specific Conductance (uS/cm, 25 oC) = 1598
                          Density (g/cm3)  =   0.99814
                        Activity of water  =   1.000
                           Ionic strength  =  2.160e-002
                       Mass of water (kg)  =  1.000e+000
                    Total carbon (mol/kg)  =  9.118e-003
                       Total CO2 (mol/kg)  =  9.118e-003
                      Temperature (deg C)  =  25.000
                  Electrical balance (eq)  =  1.136e-003
 Percent error, 100*(Cat-|An|)/(Cat+|An|)  =   3.46
                               Iterations  =   7
                                  Total H  = 1.110210e+002
                                  Total O  = 5.554898e+001

----------------------------Distribution of species----------------------------

                                                   Log       Log         Log 
   Species                 Molality    Activity  Molality  Activity     Gamma

   OH-                   3.752e-007  3.238e-007    -6.426    -6.490    -0.064
   H+                    3.485e-008  3.090e-008    -7.458    -7.510    -0.052
   H2O                   5.551e+001  9.995e-001     1.744    -0.000     0.000
C(4)            9.118e-003
   HCO3-                 8.419e-003  7.343e-003    -2.075    -2.134    -0.059
   CO2                   5.079e-004  5.105e-004    -3.294    -3.292     0.002
   CaHCO3+               6.418e-005  5.598e-005    -4.193    -4.252    -0.059
   NaHCO3                4.602e-005  4.625e-005    -4.337    -4.335     0.002
   MgHCO3+               4.277e-005  3.708e-005    -4.369    -4.431    -0.062
   CO3-2                 1.926e-005  1.114e-005    -4.715    -4.953    -0.238
   CaCO3                 1.113e-005  1.119e-005    -4.954    -4.951     0.002
   MgCO3                 4.566e-006  4.589e-006    -5.340    -5.338     0.002
   NaCO3-                2.680e-006  2.324e-006    -5.572    -5.634    -0.062
Ca              1.339e-003
   Ca+2                  1.033e-003  5.975e-004    -2.986    -3.224    -0.238
   CaSO4                 2.311e-004  2.322e-004    -3.636    -3.634     0.002
   CaHCO3+               6.418e-005  5.598e-005    -4.193    -4.252    -0.059
   CaCO3                 1.113e-005  1.119e-005    -4.954    -4.951     0.002
   CaOH+                 3.699e-009  3.207e-009    -8.432    -8.494    -0.062
   CaHSO4+               4.849e-011  4.204e-011   -10.314   -10.376    -0.062
Cl              4.237e-004
   Cl-                   4.237e-004  3.658e-004    -3.373    -3.437    -0.064
H(0)            1.345e-026
   H2                    6.727e-027  6.761e-027   -26.172   -26.170     0.002
K               4.481e-004
   K+                    4.421e-004  3.818e-004    -3.354    -3.418    -0.064
   KSO4-                 6.027e-006  5.226e-006    -5.220    -5.282    -0.062
   KOH                   4.260e-011  4.282e-011   -10.371   -10.368     0.002
Mg              9.802e-004
   Mg+2                  7.368e-004  4.315e-004    -3.133    -3.365    -0.232
   MgSO4                 1.961e-004  1.971e-004    -3.708    -3.705     0.002
   MgHCO3+               4.277e-005  3.708e-005    -4.369    -4.431    -0.062
   MgCO3                 4.566e-006  4.589e-006    -5.340    -5.338     0.002
   MgOH+                 5.845e-008  5.068e-008    -7.233    -7.295    -0.062
N(5)            2.359e-005
   NO3-                  2.359e-005  2.029e-005    -4.627    -4.693    -0.065
Na              1.307e-002
   Na+                   1.289e-002  1.120e-002    -1.890    -1.951    -0.061
   NaSO4-                1.261e-004  1.093e-004    -3.899    -3.961    -0.062
   NaHCO3                4.602e-005  4.625e-005    -4.337    -4.335     0.002
   NaCO3-                2.680e-006  2.324e-006    -5.572    -5.634    -0.062
   NaOH                  2.381e-009  2.393e-009    -8.623    -8.621     0.002
O(0)            0.000e+000
   O2                    0.000e+000  0.000e+000   -40.043   -40.040     0.002
S(6)            3.961e-003
   SO4-2                 3.402e-003  1.948e-003    -2.468    -2.710    -0.242
   CaSO4                 2.311e-004  2.322e-004    -3.636    -3.634     0.002
   MgSO4                 1.961e-004  1.971e-004    -3.708    -3.705     0.002
   NaSO4-                1.261e-004  1.093e-004    -3.899    -3.961    -0.062
   KSO4-                 6.027e-006  5.226e-006    -5.220    -5.282    -0.062
   HSO4-                 6.750e-009  5.853e-009    -8.171    -8.233    -0.062
   CaHSO4+               4.849e-011  4.204e-011   -10.314   -10.376    -0.062

------------------------------Saturation indices-------------------------------

	Phase               SI log IAP  log KT

	Anhydrite        -1.57   -5.93   -4.36  CaSO4
	Aragonite         0.16   -8.18   -8.34  CaCO3
	Calcite           0.30   -8.18   -8.48  CaCO3
	CO2(g)           -1.82   -3.29   -1.47  CO2
	Dolomite          0.60  -16.49  -17.09  CaMg(CO3)2
	Gypsum           -1.35   -5.93   -4.58  CaSO4:2H2O
	H2(g)           -23.02  -26.17   -3.15  H2
	H2O(g)           -1.51   -0.00    1.51  H2O
	Halite           -6.97   -5.39    1.58  NaCl
	O2(g)           -37.15  -40.04   -2.89  O2

------------------
End of simulation.
------------------

------------------------------------
Reading input data for simulation 2.
------------------------------------

	EXCHANGE 1-100
	 	X  1.5
		equilibrate 1
	END
-------------------------------------------------------
Beginning of initial exchange-composition calculations.
-------------------------------------------------------

Exchange 1.	

X               1.500e+000 mol

	                               Equiv-    Equivalent      Log 
	Species             Moles      alents      Fraction     Gamma

	CaX2             4.428e-001  8.856e-001  5.904e-001    -0.238
	MgX2             1.993e-001  3.987e-001  2.658e-001    -0.232
	NaX              1.841e-001  1.841e-001  1.227e-001    -0.061
	KX               3.164e-002  3.164e-002  2.109e-002    -0.064

------------------
End of simulation.
------------------

------------------------------------
Reading input data for simulation 3.
------------------------------------

	EQUILIBRIUM_PHASES 1-100
		Calcite 0 1
		Dolomite 0 1  dissolve
		Gypsum 0 1
	SOLUTION 1-4
		units mmol/kgw
		Na 100
		Cl 100	charge
	END
-------------------------------------------
Beginning of initial solution calculations.
-------------------------------------------

Initial solution 1.	

-----------------------------Solution composition------------------------------

	Elements           Molality       Moles

	Cl               1.000e-001  1.000e-001  Charge balance
	Na               1.000e-001  1.000e-001

----------------------------Description of solution----------------------------

                                       pH  =   7.000    
                                       pe  =   4.000    
       Specific Conductance (uS/cm, 25 oC) = 10802
                          Density (g/cm3)  =   1.00116
                        Activity of water  =   0.997
                           Ionic strength  =  1.000e-001
                       Mass of water (kg)  =  1.000e+000
                 Total alkalinity (eq/kg)  =  1.486e-008
                    Total carbon (mol/kg)  =  0.000e+000
                       Total CO2 (mol/kg)  =  0.000e+000
                      Temperature (deg C)  =  25.000
                  Electrical balance (eq)  = -1.286e-015
 Percent error, 100*(Cat-|An|)/(Cat+|An|)  =  -0.00
                               Iterations  =   9
                                  Total H  = 1.110124e+002
                                  Total O  = 5.550622e+001

----------------------------Distribution of species----------------------------

                                                   Log       Log         Log 
   Species                 Molality    Activity  Molality  Activity     Gamma

   OH-                   1.310e-007  9.977e-008    -6.883    -7.001    -0.118
   H+                    1.211e-007  1.000e-007    -6.917    -7.000    -0.083
   H2O                   5.551e+001  9.966e-001     1.744    -0.001     0.000
Cl              1.000e-001
   Cl-                   1.000e-001  7.645e-002    -1.000    -1.117    -0.117
H(0)            1.384e-025
   H2                    6.918e-026  7.079e-026   -25.160   -25.150     0.010
Na              1.000e-001
   Na+                   1.000e-001  7.829e-002    -1.000    -1.106    -0.106
   NaOH                  5.038e-009  5.155e-009    -8.298    -8.288     0.010
O(0)            0.000e+000
   O2                    0.000e+000  0.000e+000   -42.093   -42.083     0.010

------------------------------Saturation indices-------------------------------

	Phase               SI log IAP  log KT

	H2(g)           -22.00  -25.15   -3.15  H2
	H2O(g)           -1.51   -0.00    1.51  H2O
	Halite           -3.80   -2.22    1.58  NaCl
	O2(g)           -39.19  -42.08   -2.89  O2

-----------------------------------------
Beginning of batch-reaction calculations.
-----------------------------------------

Reaction step 1.

Using solution 1.	
Using pure phase assemblage 1.	

-------------------------------Phase assemblage--------------------------------

                                                      Moles in assemblage
Phase                  SI log IAP  log KT      Initial       Final       Delta

Calcite              0.00   -8.48   -8.48   1.000e+000  1.028e+000  2.756e-002
Dolomite            -0.00  -17.09  -17.09   1.000e+000  9.862e-001 -1.380e-002
Gypsum               0.00   -4.58   -4.58   1.000e+000  9.677e-001 -3.230e-002

-----------------------------Solution composition------------------------------

	Elements           Molality       Moles

	C                3.859e-005  3.863e-005
	Ca               1.852e-002  1.854e-002
	Cl               9.988e-002  1.000e-001
	Mg               1.378e-002  1.380e-002
	Na               9.988e-002  1.000e-001
	S                3.226e-002  3.230e-002

----------------------------Description of solution----------------------------

                                       pH  =   8.943      Charge balance
                                       pe  =  -3.380      Adjusted to redox equilibrium
       Specific Conductance (uS/cm, 25 oC) = 13984
                          Density (g/cm3)  =   1.00534
                        Activity of water  =   0.996
                           Ionic strength  =  1.853e-001
                       Mass of water (kg)  =  1.001e+000
                 Total alkalinity (eq/kg)  =  7.719e-005
                       Total CO2 (mol/kg)  =  3.859e-005
                      Temperature (deg C)  =  25.000
                  Electrical balance (eq)  = -5.292e-012
 Percent error, 100*(Cat-|An|)/(Cat+|An|)  =  -0.00
                               Iterations  =  19
                                  Total H  = 1.111416e+002
                                  Total O  = 5.570014e+001

----------------------------Distribution of species----------------------------

                                                   Log       Log         Log 
   Species                 Molality    Activity  Molality  Activity     Gamma

   OH-                   1.226e-005  8.747e-006    -4.911    -5.058    -0.147
   H+                    1.423e-009  1.140e-009    -8.847    -8.943    -0.097
   H2O                   5.551e+001  9.957e-001     1.744    -0.002     0.000
C(-4)           3.482e-028
   CH4                   3.482e-028  3.634e-028   -27.458   -27.440     0.019
C(4)            3.859e-005
   HCO3-                 2.425e-005  1.821e-005    -4.615    -4.740    -0.124
   CaCO3                 5.332e-006  5.565e-006    -5.273    -5.255     0.019
   CO3-2                 2.356e-006  7.495e-007    -5.628    -6.125    -0.497
   MgCO3                 2.244e-006  2.341e-006    -5.649    -5.631     0.019
   CaHCO3+               1.367e-006  1.027e-006    -5.864    -5.988    -0.124
   NaCO3-                1.350e-006  1.012e-006    -5.870    -5.995    -0.125
   MgHCO3+               9.302e-007  6.976e-007    -6.031    -6.156    -0.125
   NaHCO3                7.118e-007  7.428e-007    -6.148    -6.129     0.019
   CO2                   4.490e-008  4.686e-008    -7.348    -7.329     0.019
Ca              1.852e-002
   Ca+2                  1.345e-002  4.420e-003    -1.871    -2.355    -0.483
   CaSO4                 5.062e-003  5.282e-003    -2.296    -2.277     0.019
   CaCO3                 5.332e-006  5.565e-006    -5.273    -5.255     0.019
   CaHCO3+               1.367e-006  1.027e-006    -5.864    -5.988    -0.124
   CaOH+                 8.546e-007  6.409e-007    -6.068    -6.193    -0.125
   CaHSO4+               4.702e-011  3.526e-011   -10.328   -10.453    -0.125
Cl              9.988e-002
   Cl-                   9.988e-002  7.171e-002    -1.001    -1.144    -0.144
H(0)            1.015e-014
   H2                    5.074e-015  5.295e-015   -14.295   -14.276     0.019
Mg              1.378e-002
   Mg+2                  9.363e-003  3.274e-003    -2.029    -2.485    -0.456
   MgSO4                 4.405e-003  4.597e-003    -2.356    -2.338     0.019
   MgOH+                 1.385e-005  1.039e-005    -4.859    -4.984    -0.125
   MgCO3                 2.244e-006  2.341e-006    -5.649    -5.631     0.019
   MgHCO3+               9.302e-007  6.976e-007    -6.031    -6.156    -0.125
Na              9.988e-002
   Na+                   9.698e-002  7.253e-002    -1.013    -1.139    -0.126
   NaSO4-                2.903e-003  2.177e-003    -2.537    -2.662    -0.125
   NaCO3-                1.350e-006  1.012e-006    -5.870    -5.995    -0.125
   NaHCO3                7.118e-007  7.428e-007    -6.148    -6.129     0.019
   NaOH                  4.012e-007  4.187e-007    -6.397    -6.378     0.019
O(0)            0.000e+000
   O2                    0.000e+000  0.000e+000   -63.850   -63.832     0.019
S(-2)           1.371e-022
   HS-                   1.361e-022  9.709e-023   -21.866   -22.013    -0.147
   H2S                   9.269e-025  9.673e-025   -24.033   -24.014     0.019
   S-2                   3.360e-026  1.029e-026   -25.474   -25.988    -0.514
S(6)            3.226e-002
   SO4-2                 1.989e-002  5.990e-003    -1.701    -2.223    -0.521
   CaSO4                 5.062e-003  5.282e-003    -2.296    -2.277     0.019
   MgSO4                 4.405e-003  4.597e-003    -2.356    -2.338     0.019
   NaSO4-                2.903e-003  2.177e-003    -2.537    -2.662    -0.125
   HSO4-                 8.849e-010  6.636e-010    -9.053    -9.178    -0.125
   CaHSO4+               4.702e-011  3.526e-011   -10.328   -10.453    -0.125

------------------------------Saturation indices-------------------------------

	Phase               SI log IAP  log KT

	Anhydrite        -0.22   -4.58   -4.36  CaSO4
	Aragonite        -0.14   -8.48   -8.34  CaCO3
	Calcite           0.00   -8.48   -8.48  CaCO3
	CH4(g)          -24.58  -27.44   -2.86  CH4
	CO2(g)           -5.86   -7.33   -1.47  CO2
	Dolomite         -0.00  -17.09  -17.09  CaMg(CO3)2
	Gypsum            0.00   -4.58   -4.58  CaSO4:2H2O
	H2(g)           -11.13  -14.28   -3.15  H2
	H2O(g)           -1.51   -0.00    1.51  H2O
	H2S(g)          -23.02  -24.01   -1.00  H2S
	Halite           -3.87   -2.28    1.58  NaCl
	O2(g)           -60.94  -63.83   -2.89  O2
	Sulfur          -17.77  -12.89    4.88  S

------------------
End of simulation.
------------------

------------------------------------
Reading input data for simulation 4.
------------------------------------

	SELECTED_OUTPUT
	      file donly.sel
	      reset false
	      solution
		totals  Na Mg Ca S C Cl
		equilibrium_phases Calcite Dolomite Gypsum 
	USER_PUNCH
	heading pH
	10 PUNCH -LA("H+")
	END
------------------
End of simulation.
------------------

------------------------------------
Reading input data for simulation 5.
------------------------------------

	ADVECTION
		cells 30
		shifts 10
	        print_frequency 5
	END
------------------------------------
Beginning of advection calculations.
------------------------------------

Beginning of advection time step 1, cumulative pore volumes 0.033333.
Beginning of advection time step 2, cumulative pore volumes 0.066667.
Beginning of advection time step 3, cumulative pore volumes 0.100000.
Beginning of advection time step 4, cumulative pore volumes 0.133333.
Beginning of advection time step 5, cumulative pore volumes 0.166667.

Cell 1.

Using solution 1.	
Using exchange 1.	Exchange assemblage after simulation 5.
Using pure phase assemblage 1.	Pure-phase assemblage after simulation 5.

-------------------------------Phase assemblage--------------------------------

                                                      Moles in assemblage
Phase                  SI log IAP  log KT      Initial       Final       Delta

Calcite              0.00   -8.48   -8.48   1.129e+000  1.162e+000  3.289e-002
Dolomite             0.00  -17.09  -17.09   9.681e-001  9.597e-001 -8.315e-003
Gypsum               0.00   -4.58   -4.58   8.599e-001  8.242e-001 -3.571e-002

-----------------------------Exchange composition------------------------------

X               1.500e+000 mol

	                               Equiv-    Equivalent      Log 
	Species             Moles      alents      Fraction     Gamma

	CaX2             4.353e-001  8.706e-001  5.804e-001    -0.414
	NaX              2.079e-001  2.079e-001  1.386e-001    -0.108
	MgX2             1.951e-001  3.902e-001  2.601e-001    -0.396
	KX               3.129e-002  3.129e-002  2.086e-002    -0.119
	NH4X             1.559e-052  1.559e-052  1.040e-052    -0.131

-----------------------------Solution composition------------------------------

	Elements           Molality       Moles

	C                3.236e-002  3.241e-002
	Ca               1.346e-002  1.348e-002
	Cl               8.174e-004  8.186e-004
	K                1.278e-003  1.280e-003
	Mg               1.036e-002  1.038e-002
	N                3.579e-006  3.585e-006
	Na               4.212e-002  4.219e-002
	S                3.566e-002  3.571e-002

----------------------------Description of solution----------------------------

                                       pH  =   6.272      Charge balance
                                       pe  =  13.005      Adjusted to redox equilibrium
       Specific Conductance (uS/cm, 25 oC) = 6118
                          Density (g/cm3)  =   1.00280
                        Activity of water  =   0.998
                           Ionic strength  =  1.054e-001
                       Mass of water (kg)  =  1.002e+000
                 Total alkalinity (eq/kg)  =  1.745e-002
                       Total CO2 (mol/kg)  =  3.236e-002
                      Temperature (deg C)  =  25.000
                  Electrical balance (eq)  =  1.454e-003
 Percent error, 100*(Cat-|An|)/(Cat+|An|)  =   1.07
                               Iterations  =  16
                                  Total H  = 1.112019e+002
                                  Total O  = 5.581739e+001

----------------------------Distribution of species----------------------------

                                                   Log       Log         Log 
   Species                 Molality    Activity  Molality  Activity     Gamma

   H+                    6.487e-007  5.341e-007    -6.188    -6.272    -0.084
   OH-                   2.468e-008  1.870e-008    -7.608    -7.728    -0.120
   H2O                   5.551e+001  9.979e-001     1.744    -0.001     0.000
C(-4)           0.000e+000
   CH4                   0.000e+000  0.000e+000  -131.650  -131.639     0.011
C(4)            3.236e-002
   HCO3-                 1.618e-002  1.270e-002    -1.791    -1.896    -0.105
   CO2                   1.492e-002  1.529e-002    -1.826    -1.816     0.011
   CaHCO3+               6.129e-004  4.814e-004    -3.213    -3.318    -0.105
   MgHCO3+               4.200e-004  3.270e-004    -3.377    -3.485    -0.109
   NaHCO3                2.181e-004  2.235e-004    -3.661    -3.651     0.011
   CaCO3                 5.431e-006  5.565e-006    -5.265    -5.255     0.011
   CO3-2                 2.932e-006  1.115e-006    -5.533    -5.953    -0.420
   MgCO3                 2.285e-006  2.341e-006    -5.641    -5.631     0.011
   NaCO3-                8.345e-007  6.497e-007    -6.079    -6.187    -0.109
Ca              1.346e-002
   Ca+2                  7.705e-003  2.970e-003    -2.113    -2.527    -0.414
   CaSO4                 5.133e-003  5.259e-003    -2.290    -2.279     0.011
   CaHCO3+               6.129e-004  4.814e-004    -3.213    -3.318    -0.105
   CaCO3                 5.431e-006  5.565e-006    -5.265    -5.255     0.011
   CaHSO4+               2.114e-008  1.646e-008    -7.675    -7.784    -0.109
   CaOH+                 1.183e-009  9.208e-010    -8.927    -9.036    -0.109
Cl              8.174e-004
   Cl-                   8.174e-004  6.217e-004    -3.088    -3.206    -0.119
H(0)            0.000e+000
   H2                    0.000e+000  0.000e+000   -41.714   -41.704     0.011
K               1.278e-003
   K+                    1.205e-003  9.162e-004    -2.919    -3.038    -0.119
   KSO4-                 7.338e-005  5.713e-005    -4.134    -4.243    -0.109
   KOH                   5.793e-012  5.935e-012   -11.237   -11.227     0.011
Mg              1.036e-002
   Mg+2                  5.473e-003  2.200e-003    -2.262    -2.658    -0.396
   MgSO4                 4.467e-003  4.577e-003    -2.350    -2.339     0.011
   MgHCO3+               4.200e-004  3.270e-004    -3.377    -3.485    -0.109
   MgCO3                 2.285e-006  2.341e-006    -5.641    -5.631     0.011
   MgOH+                 1.917e-008  1.492e-008    -7.717    -7.826    -0.109
N(-3)           0.000e+000
   NH4+                  0.000e+000  0.000e+000   -53.122   -53.252    -0.131
   NH4SO4-               0.000e+000  0.000e+000   -54.085   -54.194    -0.109
   NH3                   0.000e+000  0.000e+000   -56.235   -56.224     0.011
N(0)            8.290e-010
   N2                    4.145e-010  4.247e-010    -9.382    -9.372     0.011
N(3)            3.721e-016
   NO2-                  3.721e-016  2.789e-016   -15.429   -15.555    -0.125
N(5)            3.579e-006
   NO3-                  3.579e-006  2.682e-006    -5.446    -5.572    -0.125
Na              4.212e-002
   Na+                   4.012e-002  3.128e-002    -1.397    -1.505    -0.108
   NaSO4-                1.787e-003  1.391e-003    -2.748    -2.857    -0.109
   NaHCO3                2.181e-004  2.235e-004    -3.661    -3.651     0.011
   NaCO3-                8.345e-007  6.497e-007    -6.079    -6.187    -0.109
   NaOH                  3.769e-010  3.861e-010    -9.424    -9.413     0.011
O(0)            2.073e-009
   O2                    1.036e-009  1.062e-009    -8.985    -8.974     0.011
S(-2)           0.000e+000
   H2S                   0.000e+000  0.000e+000  -128.227  -128.217     0.011
   HS-                   0.000e+000  0.000e+000  -128.766  -128.886    -0.120
   S-2                   0.000e+000  0.000e+000  -135.100  -135.532    -0.431
S(6)            3.566e-002
   SO4-2                 2.420e-002  8.875e-003    -1.616    -2.052    -0.436
   CaSO4                 5.133e-003  5.259e-003    -2.290    -2.279     0.011
   MgSO4                 4.467e-003  4.577e-003    -2.350    -2.339     0.011
   NaSO4-                1.787e-003  1.391e-003    -2.748    -2.857    -0.109
   KSO4-                 7.338e-005  5.713e-005    -4.134    -4.243    -0.109
   HSO4-                 5.920e-007  4.609e-007    -6.228    -6.336    -0.109
   CaHSO4+               2.114e-008  1.646e-008    -7.675    -7.784    -0.109
   NH4SO4-               0.000e+000  0.000e+000   -54.085   -54.194    -0.109

------------------------------Saturation indices-------------------------------

	Phase               SI log IAP  log KT

	Anhydrite        -0.22   -4.58   -4.36  CaSO4
	Aragonite        -0.14   -8.48   -8.34  CaCO3
	Calcite           0.00   -8.48   -8.48  CaCO3
	CH4(g)         -128.78 -131.64   -2.86  CH4
	CO2(g)           -0.35   -1.82   -1.47  CO2
	Dolomite          0.00  -17.09  -17.09  CaMg(CO3)2
	Gypsum            0.00   -4.58   -4.58  CaSO4:2H2O
	H2(g)           -38.55  -41.70   -3.15  H2
	H2O(g)           -1.51   -0.00    1.51  H2O
	H2S(g)         -127.22 -128.22   -1.00  H2S
	Halite           -6.29   -4.71    1.58  NaCl
	N2(g)            -6.11   -9.37   -3.26  N2
	NH3(g)          -57.99  -56.22    1.77  NH3
	O2(g)            -6.08   -8.97   -2.89  O2
	Sulfur          -94.54  -89.66    4.88  S


Cell 2.

Using solution 2.	Solution after simulation 5.
Using exchange 2.	Exchange assemblage after simulation 5.
Using pure phase assemblage 2.	Pure-phase assemblage after simulation 5.

-------------------------------Phase assemblage--------------------------------

                                                      Moles in assemblage
Phase                  SI log IAP  log KT      Initial       Final       Delta

Calcite              0.00   -8.48   -8.48   1.025e+000  1.025e+000  1.272e-004
Dolomite             0.00  -17.09  -17.09   9.873e-001  9.872e-001 -7.494e-005
Gypsum               0.00   -4.58   -4.58   9.720e-001  9.718e-001 -2.279e-004

-----------------------------Exchange composition------------------------------

X               1.500e+000 mol

	                               Equiv-    Equivalent      Log 
	Species             Moles      alents      Fraction     Gamma

	CaX2             4.356e-001  8.712e-001  5.808e-001    -0.414
	NaX              2.083e-001  2.083e-001  1.388e-001    -0.108
	MgX2             1.952e-001  3.905e-001  2.603e-001    -0.396
	KX               3.007e-002  3.007e-002  2.004e-002    -0.119
	NH4X             1.560e-052  1.560e-052  1.040e-052    -0.131

-----------------------------Solution composition------------------------------

	Elements           Molality       Moles

	C                3.236e-002  3.241e-002
	Ca               1.346e-002  1.348e-002
	Cl               8.174e-004  8.186e-004
	K                1.228e-003  1.229e-003
	Mg               1.036e-002  1.038e-002
	N                3.579e-006  3.585e-006
	Na               4.218e-002  4.224e-002
	S                3.566e-002  3.572e-002

----------------------------Description of solution----------------------------

                                       pH  =   6.272      Charge balance
                                       pe  =  13.005      Adjusted to redox equilibrium
       Specific Conductance (uS/cm, 25 oC) = 6117
                          Density (g/cm3)  =   1.00280
                        Activity of water  =   0.998
                           Ionic strength  =  1.054e-001
                       Mass of water (kg)  =  1.002e+000
                 Total alkalinity (eq/kg)  =  1.745e-002
                       Total CO2 (mol/kg)  =  3.236e-002
                      Temperature (deg C)  =  25.000
                  Electrical balance (eq)  =  1.454e-003
 Percent error, 100*(Cat-|An|)/(Cat+|An|)  =   1.07
                               Iterations  =   3
                                  Total H  = 1.112019e+002
                                  Total O  = 5.581740e+001

----------------------------Distribution of species----------------------------

                                                   Log       Log         Log 
   Species                 Molality    Activity  Molality  Activity     Gamma

   H+                    6.487e-007  5.341e-007    -6.188    -6.272    -0.084
   OH-                   2.468e-008  1.870e-008    -7.608    -7.728    -0.120
   H2O                   5.551e+001  9.979e-001     1.744    -0.001     0.000
C(-4)           0.000e+000
   CH4                   0.000e+000  0.000e+000  -131.650  -131.639     0.011
C(4)            3.236e-002
   HCO3-                 1.618e-002  1.270e-002    -1.791    -1.896    -0.105
   CO2                   1.492e-002  1.529e-002    -1.826    -1.816     0.011
   CaHCO3+               6.129e-004  4.814e-004    -3.213    -3.318    -0.105
   MgHCO3+               4.200e-004  3.270e-004    -3.377    -3.485    -0.109
   NaHCO3                2.184e-004  2.238e-004    -3.661    -3.650     0.011
   CaCO3                 5.431e-006  5.565e-006    -5.265    -5.255     0.011
   CO3-2                 2.932e-006  1.115e-006    -5.533    -5.953    -0.420
   MgCO3                 2.285e-006  2.341e-006    -5.641    -5.631     0.011
   NaCO3-                8.356e-007  6.506e-007    -6.078    -6.187    -0.109
Ca              1.346e-002
   Ca+2                  7.705e-003  2.970e-003    -2.113    -2.527    -0.414
   CaSO4                 5.133e-003  5.259e-003    -2.290    -2.279     0.011
   CaHCO3+               6.129e-004  4.814e-004    -3.213    -3.318    -0.105
   CaCO3                 5.431e-006  5.565e-006    -5.265    -5.255     0.011
   CaHSO4+               2.114e-008  1.646e-008    -7.675    -7.784    -0.109
   CaOH+                 1.183e-009  9.208e-010    -8.927    -9.036    -0.109
Cl              8.174e-004
   Cl-                   8.174e-004  6.217e-004    -3.088    -3.206    -0.119
H(0)            0.000e+000
   H2                    0.000e+000  0.000e+000   -41.714   -41.704     0.011
K               1.228e-003
   K+                    1.157e-003  8.801e-004    -2.937    -3.055    -0.119
   KSO4-                 7.049e-005  5.488e-005    -4.152    -4.261    -0.109
   KOH                   5.564e-012  5.701e-012   -11.255   -11.244     0.011
Mg              1.036e-002
   Mg+2                  5.473e-003  2.200e-003    -2.262    -2.658    -0.396
   MgSO4                 4.467e-003  4.577e-003    -2.350    -2.339     0.011
   MgHCO3+               4.200e-004  3.270e-004    -3.377    -3.485    -0.109
   MgCO3                 2.285e-006  2.341e-006    -5.641    -5.631     0.011
   MgOH+                 1.917e-008  1.492e-008    -7.717    -7.826    -0.109
N(-3)           0.000e+000
   NH4+                  0.000e+000  0.000e+000   -53.122   -53.252    -0.131
   NH4SO4-               0.000e+000  0.000e+000   -54.085   -54.194    -0.109
   NH3                   0.000e+000  0.000e+000   -56.235   -56.224     0.011
N(0)            8.290e-010
   N2                    4.145e-010  4.247e-010    -9.382    -9.372     0.011
N(3)            3.721e-016
   NO2-                  3.721e-016  2.789e-016   -15.429   -15.555    -0.125
N(5)            3.579e-006
   NO3-                  3.579e-006  2.682e-006    -5.446    -5.572    -0.125
Na              4.218e-002
   Na+                   4.017e-002  3.132e-002    -1.396    -1.504    -0.108
   NaSO4-                1.790e-003  1.393e-003    -2.747    -2.856    -0.109
   NaHCO3                2.184e-004  2.238e-004    -3.661    -3.650     0.011
   NaCO3-                8.356e-007  6.506e-007    -6.078    -6.187    -0.109
   NaOH                  3.774e-010  3.866e-010    -9.423    -9.413     0.011
O(0)            2.073e-009
   O2                    1.036e-009  1.062e-009    -8.985    -8.974     0.011
S(-2)           0.000e+000
   H2S                   0.000e+000  0.000e+000  -128.227  -128.217     0.011
   HS-                   0.000e+000  0.000e+000  -128.766  -128.886    -0.120
   S-2                   0.000e+000  0.000e+000  -135.100  -135.532    -0.431
S(6)            3.566e-002
   SO4-2                 2.420e-002  8.875e-003    -1.616    -2.052    -0.436
   CaSO4                 5.133e-003  5.259e-003    -2.290    -2.279     0.011
   MgSO4                 4.467e-003  4.577e-003    -2.350    -2.339     0.011
   NaSO4-                1.790e-003  1.393e-003    -2.747    -2.856    -0.109
   KSO4-                 7.049e-005  5.488e-005    -4.152    -4.261    -0.109
   HSO4-                 5.920e-007  4.609e-007    -6.228    -6.336    -0.109
   CaHSO4+               2.114e-008  1.646e-008    -7.675    -7.784    -0.109
   NH4SO4-               0.000e+000  0.000e+000   -54.085   -54.194    -0.109

------------------------------Saturation indices-------------------------------

	Phase               SI log IAP  log KT

	Anhydrite        -0.22   -4.58   -4.36  CaSO4
	Aragonite        -0.14   -8.48   -8.34  CaCO3
	Calcite           0.00   -8.48   -8.48  CaCO3
	CH4(g)         -128.78 -131.64   -2.86  CH4
	CO2(g)           -0.35   -1.82   -1.47  CO2
	Dolomite          0.00  -17.09  -17.09  CaMg(CO3)2
	Gypsum            0.00   -4.58   -4.58  CaSO4:2H2O
	H2(g)           -38.55  -41.70   -3.15  H2
	H2O(g)           -1.51   -0.00    1.51  H2O
	H2S(g)         -127.22 -128.22   -1.00  H2S
	Halite           -6.29   -4.71    1.58  NaCl
	N2(g)            -6.11   -9.37   -3.26  N2
	NH3(g)          -57.99  -56.22    1.77  NH3
	O2(g)            -6.08   -8.97   -2.89  O2
	Sulfur          -94.54  -89.66    4.88  S


Cell 3.

Using solution 3.	Solution after simulation 5.
Using exchange 3.	Exchange assemblage after simulation 5.
Using pure phase assemblage 3.	Pure-phase assemblage after simulation 5.

-------------------------------Phase assemblage--------------------------------

                                                      Moles in assemblage
Phase                  SI log IAP  log KT      Initial       Final       Delta

Calcite              0.00   -8.48   -8.48   1.024e+000  1.024e+000  2.282e-004
Dolomite             0.00  -17.09  -17.09   9.881e-001  9.879e-001 -1.341e-004
Gypsum               0.00   -4.58   -4.58   9.744e-001  9.740e-001 -4.090e-004

-----------------------------Exchange composition------------------------------

X               1.500e+000 mol

	                               Equiv-    Equivalent      Log 
	Species             Moles      alents      Fraction     Gamma

	CaX2             4.335e-001  8.670e-001  5.780e-001    -0.415
	NaX              2.148e-001  2.148e-001  1.432e-001    -0.108
	MgX2             1.942e-001  3.884e-001  2.590e-001    -0.397
	KX               2.983e-002  2.983e-002  1.989e-002    -0.119
	NH4X             1.555e-052  1.555e-052  1.037e-052    -0.131

-----------------------------Solution composition------------------------------

	Elements           Molality       Moles

	C                3.240e-002  3.246e-002
	Ca               1.338e-002  1.341e-002
	Cl               8.174e-004  8.186e-004
	K                1.216e-003  1.218e-003
	Mg               1.031e-002  1.033e-002
	N                3.579e-006  3.585e-006
	Na               4.343e-002  4.350e-002
	S                3.611e-002  3.617e-002

----------------------------Description of solution----------------------------

                                       pH  =   6.276      Charge balance
                                       pe  =  13.001      Adjusted to redox equilibrium
       Specific Conductance (uS/cm, 25 oC) = 6198
                          Density (g/cm3)  =   1.00286
                        Activity of water  =   0.998
                           Ionic strength  =  1.066e-001
                       Mass of water (kg)  =  1.002e+000
                 Total alkalinity (eq/kg)  =  1.754e-002
                       Total CO2 (mol/kg)  =  3.240e-002
                      Temperature (deg C)  =  25.000
                  Electrical balance (eq)  =  1.454e-003
 Percent error, 100*(Cat-|An|)/(Cat+|An|)  =   1.05
                               Iterations  =   3
                                  Total H  = 1.112038e+002
                                  Total O  = 5.582027e+001

----------------------------Distribution of species----------------------------

                                                   Log       Log         Log 
   Species                 Molality    Activity  Molality  Activity     Gamma

   H+                    6.443e-007  5.302e-007    -6.191    -6.276    -0.085
   OH-                   2.489e-008  1.884e-008    -7.604    -7.725    -0.121
   H2O                   5.551e+001  9.979e-001     1.744    -0.001     0.000
C(-4)           0.000e+000
   CH4                   0.000e+000  0.000e+000  -131.647  -131.636     0.011
C(4)            3.240e-002
   HCO3-                 1.626e-002  1.276e-002    -1.789    -1.894    -0.105
   CO2                   1.488e-002  1.525e-002    -1.827    -1.817     0.011
   CaHCO3+               6.090e-004  4.779e-004    -3.215    -3.321    -0.105
   MgHCO3+               4.173e-004  3.246e-004    -3.380    -3.489    -0.109
   NaHCO3                2.256e-004  2.312e-004    -3.647    -3.636     0.011
   CaCO3                 5.430e-006  5.565e-006    -5.265    -5.255     0.011
   CO3-2                 2.977e-006  1.129e-006    -5.526    -5.947    -0.421
   MgCO3                 2.285e-006  2.341e-006    -5.641    -5.631     0.011
   NaCO3-                8.703e-007  6.771e-007    -6.060    -6.169    -0.109
Ca              1.338e-002
   Ca+2                  7.638e-003  2.935e-003    -2.117    -2.532    -0.415
   CaSO4                 5.132e-003  5.259e-003    -2.290    -2.279     0.011
   CaHCO3+               6.090e-004  4.779e-004    -3.215    -3.321    -0.105
   CaCO3                 5.430e-006  5.565e-006    -5.265    -5.255     0.011
   CaHSO4+               2.100e-008  1.634e-008    -7.678    -7.787    -0.109
   CaOH+                 1.178e-009  9.166e-010    -8.929    -9.038    -0.109
Cl              8.174e-004
   Cl-                   8.174e-004  6.210e-004    -3.088    -3.207    -0.119
H(0)            0.000e+000
   H2                    0.000e+000  0.000e+000   -41.714   -41.703     0.011
K               1.216e-003
   K+                    1.146e-003  8.705e-004    -2.941    -3.060    -0.119
   KSO4-                 7.062e-005  5.494e-005    -4.151    -4.260    -0.109
   KOH                   5.543e-012  5.680e-012   -11.256   -11.246     0.011
Mg              1.031e-002
   Mg+2                  5.424e-003  2.174e-003    -2.266    -2.663    -0.397
   MgSO4                 4.466e-003  4.577e-003    -2.350    -2.339     0.011
   MgHCO3+               4.173e-004  3.246e-004    -3.380    -3.489    -0.109
   MgCO3                 2.285e-006  2.341e-006    -5.641    -5.631     0.011
   MgOH+                 1.909e-008  1.485e-008    -7.719    -7.828    -0.109
N(-3)           0.000e+000
   NH4+                  0.000e+000  0.000e+000   -53.124   -53.255    -0.131
   NH4SO4-               0.000e+000  0.000e+000   -54.082   -54.192    -0.109
   NH3                   0.000e+000  0.000e+000   -56.234   -56.224     0.011
N(0)            8.247e-010
   N2                    4.124e-010  4.226e-010    -9.385    -9.374     0.011
N(3)            3.730e-016
   NO2-                  3.730e-016  2.792e-016   -15.428   -15.554    -0.126
N(5)            3.579e-006
   NO3-                  3.579e-006  2.679e-006    -5.446    -5.572    -0.126
Na              4.343e-002
   Na+                   4.134e-002  3.221e-002    -1.384    -1.492    -0.108
   NaSO4-                1.864e-003  1.450e-003    -2.730    -2.839    -0.109
   NaHCO3                2.256e-004  2.312e-004    -3.647    -3.636     0.011
   NaCO3-                8.703e-007  6.771e-007    -6.060    -6.169    -0.109
   NaOH                  3.908e-010  4.005e-010    -9.408    -9.397     0.011
O(0)            2.062e-009
   O2                    1.031e-009  1.057e-009    -8.987    -8.976     0.011
S(-2)           0.000e+000
   H2S                   0.000e+000  0.000e+000  -128.224  -128.214     0.011
   HS-                   0.000e+000  0.000e+000  -128.759  -128.880    -0.121
   S-2                   0.000e+000  0.000e+000  -135.089  -135.522    -0.433
S(6)            3.611e-002
   SO4-2                 2.458e-002  8.982e-003    -1.609    -2.047    -0.437
   CaSO4                 5.132e-003  5.259e-003    -2.290    -2.279     0.011
   MgSO4                 4.466e-003  4.577e-003    -2.350    -2.339     0.011
   NaSO4-                1.864e-003  1.450e-003    -2.730    -2.839    -0.109
   KSO4-                 7.062e-005  5.494e-005    -4.151    -4.260    -0.109
   HSO4-                 5.952e-007  4.630e-007    -6.225    -6.334    -0.109
   CaHSO4+               2.100e-008  1.634e-008    -7.678    -7.787    -0.109
   NH4SO4-               0.000e+000  0.000e+000   -54.082   -54.192    -0.109

------------------------------Saturation indices-------------------------------

	Phase               SI log IAP  log KT

	Anhydrite        -0.22   -4.58   -4.36  CaSO4
	Aragonite        -0.14   -8.48   -8.34  CaCO3
	Calcite           0.00   -8.48   -8.48  CaCO3
	CH4(g)         -128.78 -131.64   -2.86  CH4
	CO2(g)           -0.35   -1.82   -1.47  CO2
	Dolomite          0.00  -17.09  -17.09  CaMg(CO3)2
	Gypsum            0.00   -4.58   -4.58  CaSO4:2H2O
	H2(g)           -38.55  -41.70   -3.15  H2
	H2O(g)           -1.51   -0.00    1.51  H2O
	H2S(g)         -127.22 -128.21   -1.00  H2S
	Halite           -6.28   -4.70    1.58  NaCl
	N2(g)            -6.11   -9.37   -3.26  N2
	NH3(g)          -57.99  -56.22    1.77  NH3
	O2(g)            -6.08   -8.98   -2.89  O2
	Sulfur          -94.54  -89.66    4.88  S


Cell 4.

Using solution 4.	Solution after simulation 5.
Using exchange 4.	Exchange assemblage after simulation 5.
Using pure phase assemblage 4.	Pure-phase assemblage after simulation 5.

-------------------------------Phase assemblage--------------------------------

                                                      Moles in assemblage
Phase                  SI log IAP  log KT      Initial       Final       Delta

Calcite              0.00   -8.48   -8.48   1.023e+000  1.024e+000  5.460e-005
Dolomite             0.00  -17.09  -17.09   9.883e-001  9.882e-001 -3.201e-005
Gypsum               0.00   -4.58   -4.58   9.750e-001  9.749e-001 -9.762e-005

-----------------------------Exchange composition------------------------------

X               1.500e+000 mol

	                               Equiv-    Equivalent      Log 
	Species             Moles      alents      Fraction     Gamma

	CaX2             4.326e-001  8.653e-001  5.769e-001    -0.416
	NaX              2.173e-001  2.173e-001  1.448e-001    -0.109
	MgX2             1.938e-001  3.876e-001  2.584e-001    -0.398
	KX               2.981e-002  2.981e-002  1.987e-002    -0.119
	NH4X             1.554e-052  1.554e-052  1.036e-052    -0.131

-----------------------------Solution composition------------------------------

	Elements           Molality       Moles

	C                3.242e-002  3.247e-002
	Ca               1.336e-002  1.338e-002
	Cl               8.174e-004  8.186e-004
	K                1.215e-003  1.217e-003
	Mg               1.029e-002  1.031e-002
	N                3.579e-006  3.585e-006
	Na               4.392e-002  4.399e-002
	S                3.629e-002  3.635e-002

----------------------------Description of solution----------------------------

                                       pH  =   6.277      Charge balance
                                       pe  =  12.999      Adjusted to redox equilibrium
       Specific Conductance (uS/cm, 25 oC) = 6229
                          Density (g/cm3)  =   1.00288
                        Activity of water  =   0.998
                           Ionic strength  =  1.070e-001
                       Mass of water (kg)  =  1.002e+000
                 Total alkalinity (eq/kg)  =  1.757e-002
                       Total CO2 (mol/kg)  =  3.242e-002
                      Temperature (deg C)  =  25.000
                  Electrical balance (eq)  =  1.454e-003
 Percent error, 100*(Cat-|An|)/(Cat+|An|)  =   1.05
                               Iterations  =   2
                                  Total H  = 1.112045e+002
                                  Total O  = 5.582139e+001

----------------------------Distribution of species----------------------------

                                                   Log       Log         Log 
   Species                 Molality    Activity  Molality  Activity     Gamma

   H+                    6.427e-007  5.288e-007    -6.192    -6.277    -0.085
   OH-                   2.497e-008  1.889e-008    -7.603    -7.724    -0.121
   H2O                   5.551e+001  9.979e-001     1.744    -0.001     0.000
C(-4)           0.000e+000
   CH4                   0.000e+000  0.000e+000  -131.646  -131.635     0.011
C(4)            3.242e-002
   HCO3-                 1.630e-002  1.278e-002    -1.788    -1.893    -0.105
   CO2                   1.486e-002  1.523e-002    -1.828    -1.817     0.011
   CaHCO3+               6.075e-004  4.765e-004    -3.216    -3.322    -0.105
   MgHCO3+               4.162e-004  3.237e-004    -3.381    -3.490    -0.109
   NaHCO3                2.283e-004  2.340e-004    -3.641    -3.631     0.011
   CaCO3                 5.429e-006  5.565e-006    -5.265    -5.255     0.011
   CO3-2                 2.995e-006  1.134e-006    -5.524    -5.945    -0.422
   MgCO3                 2.284e-006  2.341e-006    -5.641    -5.631     0.011
   NaCO3-                8.839e-007  6.874e-007    -6.054    -6.163    -0.109
Ca              1.336e-002
   Ca+2                  7.613e-003  2.921e-003    -2.118    -2.534    -0.416
   CaSO4                 5.131e-003  5.259e-003    -2.290    -2.279     0.011
   CaHCO3+               6.075e-004  4.765e-004    -3.216    -3.322    -0.105
   CaCO3                 5.429e-006  5.565e-006    -5.265    -5.255     0.011
   CaHSO4+               2.095e-008  1.629e-008    -7.679    -7.788    -0.109
   CaOH+                 1.177e-009  9.150e-010    -8.929    -9.039    -0.109
Cl              8.174e-004
   Cl-                   8.174e-004  6.208e-004    -3.088    -3.207    -0.119
H(0)            0.000e+000
   H2                    0.000e+000  0.000e+000   -41.713   -41.702     0.011
K               1.215e-003
   K+                    1.144e-003  8.690e-004    -2.941    -3.061    -0.119
   KSO4-                 7.084e-005  5.509e-005    -4.150    -4.259    -0.109
   KOH                   5.548e-012  5.687e-012   -11.256   -11.245     0.011
Mg              1.029e-002
   Mg+2                  5.405e-003  2.164e-003    -2.267    -2.665    -0.398
   MgSO4                 4.466e-003  4.577e-003    -2.350    -2.339     0.011
   MgHCO3+               4.162e-004  3.237e-004    -3.381    -3.490    -0.109
   MgCO3                 2.284e-006  2.341e-006    -5.641    -5.631     0.011
   MgOH+                 1.907e-008  1.483e-008    -7.720    -7.829    -0.109
N(-3)           0.000e+000
   NH4+                  0.000e+000  0.000e+000   -53.125   -53.256    -0.131
   NH4SO4-               0.000e+000  0.000e+000   -54.081   -54.191    -0.109
   NH3                   0.000e+000  0.000e+000   -56.234   -56.223     0.011
N(0)            8.231e-010
   N2                    4.116e-010  4.218e-010    -9.386    -9.375     0.011
N(3)            3.734e-016
   NO2-                  3.734e-016  2.793e-016   -15.428   -15.554    -0.126
N(5)            3.578e-006
   NO3-                  3.578e-006  2.677e-006    -5.446    -5.572    -0.126
Na              4.392e-002
   Na+                   4.180e-002  3.256e-002    -1.379    -1.487    -0.109
   NaSO4-                1.893e-003  1.472e-003    -2.723    -2.832    -0.109
   NaHCO3                2.283e-004  2.340e-004    -3.641    -3.631     0.011
   NaCO3-                8.839e-007  6.874e-007    -6.054    -6.163    -0.109
   NaOH                  3.960e-010  4.059e-010    -9.402    -9.392     0.011
O(0)            2.058e-009
   O2                    1.029e-009  1.055e-009    -8.988    -8.977     0.011
S(-2)           0.000e+000
   H2S                   0.000e+000  0.000e+000  -128.223  -128.213     0.011
   HS-                   0.000e+000  0.000e+000  -128.756  -128.878    -0.121
   S-2                   0.000e+000  0.000e+000  -135.085  -135.519    -0.434
S(6)            3.629e-002
   SO4-2                 2.473e-002  9.023e-003    -1.607    -2.045    -0.438
   CaSO4                 5.131e-003  5.259e-003    -2.290    -2.279     0.011
   MgSO4                 4.466e-003  4.577e-003    -2.350    -2.339     0.011
   NaSO4-                1.893e-003  1.472e-003    -2.723    -2.832    -0.109
   KSO4-                 7.084e-005  5.509e-005    -4.150    -4.259    -0.109
   HSO4-                 5.964e-007  4.638e-007    -6.224    -6.334    -0.109
   CaHSO4+               2.095e-008  1.629e-008    -7.679    -7.788    -0.109
   NH4SO4-               0.000e+000  0.000e+000   -54.081   -54.191    -0.109

------------------------------Saturation indices-------------------------------

	Phase               SI log IAP  log KT

	Anhydrite        -0.22   -4.58   -4.36  CaSO4
	Aragonite        -0.14   -8.48   -8.34  CaCO3
	Calcite           0.00   -8.48   -8.48  CaCO3
	CH4(g)         -128.77 -131.63   -2.86  CH4
	CO2(g)           -0.35   -1.82   -1.47  CO2
	Dolomite          0.00  -17.09  -17.09  CaMg(CO3)2
	Gypsum            0.00   -4.58   -4.58  CaSO4:2H2O
	H2(g)           -38.55  -41.70   -3.15  H2
	H2O(g)           -1.51   -0.00    1.51  H2O
	H2S(g)         -127.22 -128.21   -1.00  H2S
	Halite           -6.28   -4.69    1.58  NaCl
	N2(g)            -6.11   -9.37   -3.26  N2
	NH3(g)          -57.99  -56.22    1.77  NH3
	O2(g)            -6.08   -8.98   -2.89  O2
	Sulfur          -94.54  -89.66    4.88  S


Cell 5.

Using solution 5.	Solution after simulation 5.
Using exchange 5.	Exchange assemblage after simulation 5.
Using pure phase assemblage 5.	Pure-phase assemblage after simulation 5.

-------------------------------Phase assemblage--------------------------------

                                                      Moles in assemblage
Phase                  SI log IAP  log KT      Initial       Final       Delta

Calcite              0.00   -8.48   -8.48   1.019e+000  1.023e+000  4.582e-003
Dolomite             0.00  -17.09  -17.09   9.906e-001  9.883e-001 -2.291e-003
Gypsum               0.00   -4.58   -4.58   9.751e-001  9.751e-001 -6.896e-006

-----------------------------Exchange composition------------------------------

X               1.500e+000 mol

	                               Equiv-    Equivalent      Log 
	Species             Moles      alents      Fraction     Gamma

	CaX2             4.325e-001  8.650e-001  5.767e-001    -0.416
	NaX              2.176e-001  2.176e-001  1.451e-001    -0.109
	MgX2             1.938e-001  3.875e-001  2.584e-001    -0.398
	KX               2.981e-002  2.981e-002  1.987e-002    -0.120
	NH4X             1.553e-052  1.553e-052  1.036e-052    -0.131

-----------------------------Solution composition------------------------------

	Elements           Molality       Moles

	C                3.242e-002  3.248e-002
	Ca               1.335e-002  1.337e-002
	Cl               8.174e-004  8.186e-004
	K                1.215e-003  1.217e-003
	Mg               1.029e-002  1.030e-002
	N                3.579e-006  3.585e-006
	Na               4.399e-002  4.406e-002
	S                3.632e-002  3.638e-002

----------------------------Description of solution----------------------------

                                       pH  =   6.277      Charge balance
                                       pe  =  12.999      Adjusted to redox equilibrium
       Specific Conductance (uS/cm, 25 oC) = 6234
                          Density (g/cm3)  =   1.00289
                        Activity of water  =   0.998
                           Ionic strength  =  1.071e-001
                       Mass of water (kg)  =  1.002e+000
                 Total alkalinity (eq/kg)  =  1.758e-002
                       Total CO2 (mol/kg)  =  3.242e-002
                      Temperature (deg C)  =  25.000
                  Electrical balance (eq)  =  1.454e-003
 Percent error, 100*(Cat-|An|)/(Cat+|An|)  =   1.05
                               Iterations  =   5
                                  Total H  = 1.112046e+002
                                  Total O  = 5.582155e+001

----------------------------Distribution of species----------------------------

                                                   Log       Log         Log 
   Species                 Molality    Activity  Molality  Activity     Gamma

   H+                    6.424e-007  5.285e-007    -6.192    -6.277    -0.085
   OH-                   2.498e-008  1.890e-008    -7.602    -7.724    -0.121
   H2O                   5.551e+001  9.979e-001     1.744    -0.001     0.000
C(-4)           0.000e+000
   CH4                   0.000e+000  0.000e+000  -131.646  -131.635     0.011
C(4)            3.242e-002
   HCO3-                 1.630e-002  1.279e-002    -1.788    -1.893    -0.105
   CO2                   1.486e-002  1.523e-002    -1.828    -1.817     0.011
   CaHCO3+               6.073e-004  4.763e-004    -3.217    -3.322    -0.105
   MgHCO3+               4.161e-004  3.236e-004    -3.381    -3.490    -0.109
   NaHCO3                2.288e-004  2.345e-004    -3.641    -3.630     0.011
   CaCO3                 5.429e-006  5.565e-006    -5.265    -5.255     0.011
   CO3-2                 2.998e-006  1.135e-006    -5.523    -5.945    -0.422
   MgCO3                 2.284e-006  2.341e-006    -5.641    -5.631     0.011
   NaCO3-                8.858e-007  6.889e-007    -6.053    -6.162    -0.109
Ca              1.335e-002
   Ca+2                  7.609e-003  2.920e-003    -2.119    -2.535    -0.416
   CaSO4                 5.131e-003  5.259e-003    -2.290    -2.279     0.011
   CaHCO3+               6.073e-004  4.763e-004    -3.217    -3.322    -0.105
   CaCO3                 5.429e-006  5.565e-006    -5.265    -5.255     0.011
   CaHSO4+               2.094e-008  1.629e-008    -7.679    -7.788    -0.109
   CaOH+                 1.176e-009  9.148e-010    -8.929    -9.039    -0.109
Cl              8.174e-004
   Cl-                   8.174e-004  6.207e-004    -3.088    -3.207    -0.120
H(0)            0.000e+000
   H2                    0.000e+000  0.000e+000   -41.713   -41.702     0.011
K               1.215e-003
   K+                    1.144e-003  8.689e-004    -2.942    -3.061    -0.120
   KSO4-                 7.088e-005  5.512e-005    -4.149    -4.259    -0.109
   KOH                   5.549e-012  5.688e-012   -11.256   -11.245     0.011
Mg              1.029e-002
   Mg+2                  5.403e-003  2.163e-003    -2.267    -2.665    -0.398
   MgSO4                 4.466e-003  4.577e-003    -2.350    -2.339     0.011
   MgHCO3+               4.161e-004  3.236e-004    -3.381    -3.490    -0.109
   MgCO3                 2.284e-006  2.341e-006    -5.641    -5.631     0.011
   MgOH+                 1.906e-008  1.482e-008    -7.720    -7.829    -0.109
N(-3)           0.000e+000
   NH4+                  0.000e+000  0.000e+000   -53.125   -53.256    -0.131
   NH4SO4-               0.000e+000  0.000e+000   -54.081   -54.190    -0.109
   NH3                   0.000e+000  0.000e+000   -56.234   -56.223     0.011
N(0)            8.229e-010
   N2                    4.114e-010  4.217e-010    -9.386    -9.375     0.011
N(3)            3.734e-016
   NO2-                  3.734e-016  2.794e-016   -15.428   -15.554    -0.126
N(5)            3.578e-006
   NO3-                  3.578e-006  2.677e-006    -5.446    -5.572    -0.126
Na              4.399e-002
   Na+                   4.186e-002  3.261e-002    -1.378    -1.487    -0.109
   NaSO4-                1.897e-003  1.475e-003    -2.722    -2.831    -0.109
   NaHCO3                2.288e-004  2.345e-004    -3.641    -3.630     0.011
   NaCO3-                8.858e-007  6.889e-007    -6.053    -6.162    -0.109
   NaOH                  3.968e-010  4.067e-010    -9.401    -9.391     0.011
O(0)            2.057e-009
   O2                    1.029e-009  1.054e-009    -8.988    -8.977     0.011
S(-2)           0.000e+000
   H2S                   0.000e+000  0.000e+000  -128.223  -128.212     0.011
   HS-                   0.000e+000  0.000e+000  -128.756  -128.877    -0.121
   S-2                   0.000e+000  0.000e+000  -135.085  -135.518    -0.434
S(6)            3.632e-002
   SO4-2                 2.475e-002  9.029e-003    -1.606    -2.044    -0.438
   CaSO4                 5.131e-003  5.259e-003    -2.290    -2.279     0.011
   MgSO4                 4.466e-003  4.577e-003    -2.350    -2.339     0.011
   NaSO4-                1.897e-003  1.475e-003    -2.722    -2.831    -0.109
   KSO4-                 7.088e-005  5.512e-005    -4.149    -4.259    -0.109
   HSO4-                 5.966e-007  4.640e-007    -6.224    -6.334    -0.109
   CaHSO4+               2.094e-008  1.629e-008    -7.679    -7.788    -0.109
   NH4SO4-               0.000e+000  0.000e+000   -54.081   -54.190    -0.109

------------------------------Saturation indices-------------------------------

	Phase               SI log IAP  log KT

	Anhydrite        -0.22   -4.58   -4.36  CaSO4
	Aragonite        -0.14   -8.48   -8.34  CaCO3
	Calcite           0.00   -8.48   -8.48  CaCO3
	CH4(g)         -128.77 -131.63   -2.86  CH4
	CO2(g)           -0.35   -1.82   -1.47  CO2
	Dolomite          0.00  -17.09  -17.09  CaMg(CO3)2
	Gypsum            0.00   -4.58   -4.58  CaSO4:2H2O
	H2(g)           -38.55  -41.70   -3.15  H2
	H2O(g)           -1.51   -0.00    1.51  H2O
	H2S(g)         -127.22 -128.21   -1.00  H2S
	Halite           -6.28   -4.69    1.58  NaCl
	N2(g)            -6.11   -9.37   -3.26  N2
	NH3(g)          -57.99  -56.22    1.77  NH3
	O2(g)            -6.08   -8.98   -2.89  O2
	Sulfur          -94.54  -89.66    4.88  S


Cell 6.

Using solution 6.	Solution after simulation 5.
Using exchange 6.	Exchange assemblage after simulation 5.
Using pure phase assemblage 6.	Pure-phase assemblage after simulation 5.

-------------------------------Phase assemblage--------------------------------

                                                      Moles in assemblage
Phase                  SI log IAP  log KT      Initial       Final       Delta

Calcite              0.00   -8.48   -8.48   1.025e+000  1.025e+000  1.602e-007
Dolomite             0.01  -17.08  -17.09   9.883e-001  9.883e-001  0.000e+000
Gypsum               0.00   -4.58   -4.58   9.729e-001  9.736e-001  7.702e-004

-----------------------------Exchange composition------------------------------

X               1.500e+000 mol

	                               Equiv-    Equivalent      Log 
	Species             Moles      alents      Fraction     Gamma

	CaX2             4.394e-001  8.788e-001  5.859e-001    -0.476
	MgX2             1.970e-001  3.940e-001  2.627e-001    -0.450
	NaX              1.967e-001  1.967e-001  1.311e-001    -0.124
	KX               3.049e-002  3.049e-002  2.033e-002    -0.141

-----------------------------Solution composition------------------------------

	Elements           Molality       Moles

	C                3.535e-005  3.538e-005
	Ca               2.440e-002  2.442e-002
	Cl               9.991e-002  1.000e-001
	K                1.902e-003  1.903e-003
	Mg               1.824e-002  1.826e-002
	Na               6.104e-002  6.109e-002
	S                2.412e-002  2.414e-002

----------------------------Description of solution----------------------------

                                       pH  =   8.818      Charge balance
                                       pe  =  -4.010      Adjusted to redox equilibrium
       Specific Conductance (uS/cm, 25 oC) = 12630
                          Density (g/cm3)  =   1.00436
                        Activity of water  =   0.996
                           Ionic strength  =  1.741e-001
                       Mass of water (kg)  =  1.001e+000
                 Total alkalinity (eq/kg)  =  7.072e-005
                       Total CO2 (mol/kg)  =  3.535e-005
                      Temperature (deg C)  =  25.000
                  Electrical balance (eq)  =  3.668e-011
 Percent error, 100*(Cat-|An|)/(Cat+|An|)  =   0.00
                               Iterations  =   3
                                  Total H  = 1.111090e+002
                                  Total O  = 5.565119e+001

----------------------------Distribution of species----------------------------

                                                   Log       Log         Log 
   Species                 Molality    Activity  Molality  Activity     Gamma

   OH-                   9.126e-006  6.556e-006    -5.040    -5.183    -0.144
   H+                    1.894e-009  1.521e-009    -8.723    -8.818    -0.095
   H2O                   5.551e+001  9.963e-001     1.744    -0.002     0.000
C(-4)           4.725e-022
   CH4                   4.725e-022  4.919e-022   -21.326   -21.308     0.017
C(4)            3.535e-005
   HCO3-                 2.203e-005  1.663e-005    -4.657    -4.779    -0.122
   CaCO3                 5.346e-006  5.565e-006    -5.272    -5.255     0.017
   MgCO3                 2.290e-006  2.384e-006    -5.640    -5.623     0.017
   CaHCO3+               1.816e-006  1.371e-006    -5.741    -5.863    -0.122
   CO3-2                 1.579e-006  5.127e-007    -5.802    -6.290    -0.489
   MgHCO3+               1.260e-006  9.482e-007    -5.900    -6.023    -0.123
   NaCO3-                5.698e-007  4.289e-007    -6.244    -6.368    -0.123
   NaHCO3                4.037e-007  4.202e-007    -6.394    -6.377     0.017
   CO2                   5.485e-008  5.710e-008    -7.261    -7.243     0.017
Ca              2.440e-002
   Ca+2                  1.933e-002  6.462e-003    -1.714    -2.190    -0.476
   CaSO4                 5.069e-003  5.276e-003    -2.295    -2.278     0.017
   CaCO3                 5.346e-006  5.565e-006    -5.272    -5.255     0.017
   CaHCO3+               1.816e-006  1.371e-006    -5.741    -5.863    -0.122
   CaOH+                 9.329e-007  7.023e-007    -6.030    -6.154    -0.123
   CaHSO4+               6.247e-011  4.703e-011   -10.204   -10.328    -0.123
Cl              9.991e-002
   Cl-                   9.991e-002  7.221e-002    -1.000    -1.141    -0.141
H(0)            3.304e-013
   H2                    1.652e-013  1.720e-013   -12.782   -12.765     0.017
K               1.902e-003
   K+                    1.850e-003  1.337e-003    -2.733    -2.874    -0.141
   KSO4-                 5.109e-005  3.845e-005    -4.292    -4.415    -0.123
   KOH                   2.917e-009  3.037e-009    -8.535    -8.518     0.017
Mg              1.824e-002
   Mg+2                  1.373e-002  4.873e-003    -1.862    -2.312    -0.450
   MgSO4                 4.491e-003  4.675e-003    -2.348    -2.330     0.017
   MgOH+                 1.539e-005  1.159e-005    -4.813    -4.936    -0.123
   MgCO3                 2.290e-006  2.384e-006    -5.640    -5.623     0.017
   MgHCO3+               1.260e-006  9.482e-007    -5.900    -6.023    -0.123
Na              6.104e-002
   Na+                   5.981e-002  4.493e-002    -1.223    -1.347    -0.124
   NaSO4-                1.224e-003  9.216e-004    -2.912    -3.035    -0.123
   NaCO3-                5.698e-007  4.289e-007    -6.244    -6.368    -0.123
   NaHCO3                4.037e-007  4.202e-007    -6.394    -6.377     0.017
   NaOH                  1.868e-007  1.944e-007    -6.729    -6.711     0.017
O(0)            0.000e+000
   O2                    0.000e+000  0.000e+000   -66.872   -66.854     0.017
S(-2)           1.381e-016
   HS-                   1.368e-016  9.826e-017   -15.864   -16.008    -0.144
   H2S                   1.256e-018  1.307e-018   -17.901   -17.884     0.017
   S-2                   2.493e-020  7.801e-021   -19.603   -20.108    -0.505
S(6)            2.412e-002
   SO4-2                 1.329e-002  4.092e-003    -1.877    -2.388    -0.511
   CaSO4                 5.069e-003  5.276e-003    -2.295    -2.278     0.017
   MgSO4                 4.491e-003  4.675e-003    -2.348    -2.330     0.017
   NaSO4-                1.224e-003  9.216e-004    -2.912    -3.035    -0.123
   KSO4-                 5.109e-005  3.845e-005    -4.292    -4.415    -0.123
   HSO4-                 8.041e-010  6.053e-010    -9.095    -9.218    -0.123
   CaHSO4+               6.247e-011  4.703e-011   -10.204   -10.328    -0.123

------------------------------Saturation indices-------------------------------

	Phase               SI log IAP  log KT

	Anhydrite        -0.22   -4.58   -4.36  CaSO4
	Aragonite        -0.14   -8.48   -8.34  CaCO3
	Calcite           0.00   -8.48   -8.48  CaCO3
	CH4(g)          -18.45  -21.31   -2.86  CH4
	CO2(g)           -5.78   -7.24   -1.47  CO2
	Dolomite          0.01  -17.08  -17.09  CaMg(CO3)2
	Gypsum            0.00   -4.58   -4.58  CaSO4:2H2O
	H2(g)            -9.61  -12.76   -3.15  H2
	H2O(g)           -1.51   -0.00    1.51  H2O
	H2S(g)          -16.89  -17.88   -1.00  H2S
	Halite           -4.07   -2.49    1.58  NaCl
	O2(g)           -63.96  -66.85   -2.89  O2
	Sulfur          -13.15   -8.27    4.88  S


Cell 7.

Using solution 7.	Solution after simulation 5.
Using exchange 7.	Exchange assemblage after simulation 5.
Using pure phase assemblage 7.	Pure-phase assemblage after simulation 5.

-------------------------------Phase assemblage--------------------------------

                                                      Moles in assemblage
Phase                  SI log IAP  log KT      Initial       Final       Delta

Calcite              0.00   -8.48   -8.48   1.025e+000  1.025e+000  2.345e-007
Dolomite             0.01  -17.08  -17.09   9.883e-001  9.883e-001  0.000e+000
Gypsum               0.00   -4.58   -4.58   9.699e-001  9.705e-001  6.496e-004

-----------------------------Exchange composition------------------------------

X               1.500e+000 mol

	                               Equiv-    Equivalent      Log 
	Species             Moles      alents      Fraction     Gamma

	CaX2             4.461e-001  8.922e-001  5.948e-001    -0.475
	MgX2             2.008e-001  4.016e-001  2.677e-001    -0.450
	NaX              1.754e-001  1.754e-001  1.169e-001    -0.124
	KX               3.079e-002  3.079e-002  2.053e-002    -0.141

-----------------------------Solution composition------------------------------

	Elements           Molality       Moles

	C                3.504e-005  3.507e-005
	Ca               2.547e-002  2.549e-002
	Cl               9.992e-002  1.000e-001
	K                1.955e-003  1.956e-003
	Mg               1.908e-002  1.909e-002
	Na               5.545e-002  5.549e-002
	S                2.325e-002  2.327e-002

----------------------------Description of solution----------------------------

                                       pH  =   8.799      Charge balance
                                       pe  =  -4.017      Adjusted to redox equilibrium
       Specific Conductance (uS/cm, 25 oC) = 12466
                          Density (g/cm3)  =   1.00426
                        Activity of water  =   0.996
                           Ionic strength  =  1.737e-001
                       Mass of water (kg)  =  1.001e+000
                 Total alkalinity (eq/kg)  =  7.009e-005
                       Total CO2 (mol/kg)  =  3.504e-005
                      Temperature (deg C)  =  25.000
                  Electrical balance (eq)  = -3.745e-010
 Percent error, 100*(Cat-|An|)/(Cat+|An|)  =  -0.00
                               Iterations  =   3
                                  Total H  = 1.111055e+002
                                  Total O  = 5.564595e+001

----------------------------Distribution of species----------------------------

                                                   Log       Log         Log 
   Species                 Molality    Activity  Molality  Activity     Gamma

   OH-                   8.742e-006  6.282e-006    -5.058    -5.202    -0.144
   H+                    1.977e-009  1.588e-009    -8.704    -8.799    -0.095
   H2O                   5.551e+001  9.964e-001     1.744    -0.002     0.000
C(-4)           7.706e-022
   CH4                   7.706e-022  8.021e-022   -21.113   -21.096     0.017
C(4)            3.504e-005
   HCO3-                 2.177e-005  1.644e-005    -4.662    -4.784    -0.122
   CaCO3                 5.347e-006  5.565e-006    -5.272    -5.255     0.017
   MgCO3                 2.299e-006  2.393e-006    -5.638    -5.621     0.017
   CaHCO3+               1.895e-006  1.431e-006    -5.722    -5.844    -0.122
   CO3-2                 1.494e-006  4.855e-007    -5.826    -6.314    -0.488
   MgHCO3+               1.320e-006  9.934e-007    -5.880    -6.003    -0.123
   NaCO3-                4.907e-007  3.694e-007    -6.309    -6.432    -0.123
   NaHCO3                3.629e-007  3.778e-007    -6.440    -6.423     0.017
   CO2                   5.659e-008  5.890e-008    -7.247    -7.230     0.017
Ca              2.547e-002
   Ca+2                  2.039e-002  6.823e-003    -1.691    -2.166    -0.475
   CaSO4                 5.069e-003  5.275e-003    -2.295    -2.278     0.017
   CaCO3                 5.347e-006  5.565e-006    -5.272    -5.255     0.017
   CaHCO3+               1.895e-006  1.431e-006    -5.722    -5.844    -0.122
   CaOH+                 9.438e-007  7.105e-007    -6.025    -6.148    -0.123
   CaHSO4+               6.518e-011  4.907e-011   -10.186   -10.309    -0.123
Cl              9.992e-002
   Cl-                   9.992e-002  7.223e-002    -1.000    -1.141    -0.141
H(0)            3.705e-013
   H2                    1.853e-013  1.928e-013   -12.732   -12.715     0.017
K               1.955e-003
   K+                    1.905e-003  1.377e-003    -2.720    -2.861    -0.141
   KSO4-                 4.980e-005  3.749e-005    -4.303    -4.426    -0.123
   KOH                   2.879e-009  2.996e-009    -8.541    -8.523     0.017
Mg              1.908e-002
   Mg+2                  1.455e-002  5.165e-003    -1.837    -2.287    -0.450
   MgSO4                 4.508e-003  4.692e-003    -2.346    -2.329     0.017
   MgOH+                 1.563e-005  1.177e-005    -4.806    -4.929    -0.123
   MgCO3                 2.299e-006  2.393e-006    -5.638    -5.621     0.017
   MgHCO3+               1.320e-006  9.934e-007    -5.880    -6.003    -0.123
Na              5.545e-002
   Na+                   5.439e-002  4.087e-002    -1.264    -1.389    -0.124
   NaSO4-                1.054e-003  7.937e-004    -2.977    -3.100    -0.123
   NaCO3-                4.907e-007  3.694e-007    -6.309    -6.432    -0.123
   NaHCO3                3.629e-007  3.778e-007    -6.440    -6.423     0.017
   NaOH                  1.628e-007  1.694e-007    -6.788    -6.771     0.017
O(0)            0.000e+000
   O2                    0.000e+000  0.000e+000   -66.971   -66.953     0.017
S(-2)           2.157e-016
   HS-                   2.136e-016  1.535e-016   -15.670   -15.814    -0.144
   H2S                   2.047e-018  2.131e-018   -17.689   -17.671     0.017
   S-2                   3.728e-020  1.168e-020   -19.429   -19.933    -0.504
S(6)            2.325e-002
   SO4-2                 1.257e-002  3.875e-003    -1.901    -2.412    -0.511
   CaSO4                 5.069e-003  5.275e-003    -2.295    -2.278     0.017
   MgSO4                 4.508e-003  4.692e-003    -2.346    -2.329     0.017
   NaSO4-                1.054e-003  7.937e-004    -2.977    -3.100    -0.123
   KSO4-                 4.980e-005  3.749e-005    -4.303    -4.426    -0.123
   HSO4-                 7.946e-010  5.982e-010    -9.100    -9.223    -0.123
   CaHSO4+               6.518e-011  4.907e-011   -10.186   -10.309    -0.123

------------------------------Saturation indices-------------------------------

	Phase               SI log IAP  log KT

	Anhydrite        -0.22   -4.58   -4.36  CaSO4
	Aragonite        -0.14   -8.48   -8.34  CaCO3
	Calcite           0.00   -8.48   -8.48  CaCO3
[...]
   MgHCO3+               1.412e-004  1.110e-004    -3.850    -3.955    -0.104
   MgCO3                 2.292e-006  2.341e-006    -5.640    -5.631     0.009
   MgOH+                 5.419e-008  4.260e-008    -7.266    -7.371    -0.104
N(-3)           0.000e+000
   NH4+                  0.000e+000  0.000e+000   -53.648   -53.772    -0.124
   NH4SO4-               0.000e+000  0.000e+000   -54.596   -54.700    -0.104
   NH3                   0.000e+000  0.000e+000   -56.284   -56.274     0.009
N(0)            1.328e-009
   N2                    6.638e-010  6.780e-010    -9.178    -9.169     0.009
N(3)            1.939e-015
   NO2-                  1.939e-015  1.475e-015   -14.712   -14.831    -0.119
N(5)            2.356e-005
   NO3-                  2.356e-005  1.792e-005    -4.628    -4.747    -0.119
Na              3.176e-002
   Na+                   3.031e-002  2.388e-002    -1.518    -1.622    -0.104
   NaSO4-                1.393e-003  1.095e-003    -2.856    -2.961    -0.104
   NaHCO3                5.853e-005  5.978e-005    -4.233    -4.223     0.009
   NaCO3-                6.512e-007  5.120e-007    -6.186    -6.291    -0.104
   NaOH                  8.505e-010  8.687e-010    -9.070    -9.061     0.009
O(0)            3.319e-009
   O2                    1.659e-009  1.695e-009    -8.780    -8.771     0.009
S(-2)           0.000e+000
   H2S                   0.000e+000  0.000e+000  -129.557  -129.548     0.009
   HS-                   0.000e+000  0.000e+000  -129.634  -129.748    -0.115
   S-2                   0.000e+000  0.000e+000  -135.512  -135.925    -0.412
S(6)            3.494e-002
   SO4-2                 2.386e-002  9.152e-003    -1.622    -2.038    -0.416
   CaSO4                 5.142e-003  5.253e-003    -2.289    -2.280     0.009
   MgSO4                 4.475e-003  4.571e-003    -2.349    -2.340     0.009
   NaSO4-                1.393e-003  1.095e-003    -2.856    -2.961    -0.104
   KSO4-                 7.119e-005  5.597e-005    -4.148    -4.252    -0.104
   HSO4-                 2.052e-007  1.613e-007    -6.688    -6.792    -0.104
   CaHSO4+               7.097e-009  5.579e-009    -8.149    -8.253    -0.104
   NH4SO4-               0.000e+000  0.000e+000   -54.596   -54.700    -0.104

------------------------------Saturation indices-------------------------------

	Phase               SI log IAP  log KT

	Anhydrite        -0.22   -4.58   -4.36  CaSO4
	Aragonite        -0.14   -8.48   -8.34  CaCO3
	Calcite           0.00   -8.48   -8.48  CaCO3
	CH4(g)         -130.11 -132.97   -2.86  CH4
	CO2(g)           -1.27   -2.74   -1.47  CO2
	Dolomite          0.00  -17.09  -17.09  CaMg(CO3)2
	Gypsum            0.00   -4.58   -4.58  CaSO4:2H2O
	H2(g)           -38.66  -41.81   -3.15  H2
	H2O(g)           -1.51   -0.00    1.51  H2O
	H2S(g)         -128.55 -129.55   -1.00  H2S
	Halite           -6.69   -5.11    1.58  NaCl
	N2(g)            -5.91   -9.17   -3.26  N2
	NH3(g)          -58.04  -56.27    1.77  NH3
	O2(g)            -5.88   -8.77   -2.89  O2
	Sulfur          -95.78  -90.89    4.88  S


Cell 29.

Using solution 29.	Solution after simulation 5.
Using exchange 29.	Exchange assemblage after simulation 5.
Using pure phase assemblage 29.	Pure-phase assemblage after simulation 5.

-------------------------------Phase assemblage--------------------------------

                                                      Moles in assemblage
Phase                  SI log IAP  log KT      Initial       Final       Delta

Calcite              0.00   -8.48   -8.48   1.025e+000  1.025e+000 -2.220e-015
Dolomite             0.00  -17.09  -17.09   9.883e-001  9.883e-001  0.000e+000
Gypsum               0.00   -4.58   -4.58   9.690e-001  9.690e-001  1.221e-015

-----------------------------Exchange composition------------------------------

X               1.500e+000 mol

	                               Equiv-    Equivalent      Log 
	Species             Moles      alents      Fraction     Gamma

	CaX2             4.496e-001  8.992e-001  5.995e-001    -0.397
	MgX2             2.023e-001  4.046e-001  2.697e-001    -0.381
	NaX              1.653e-001  1.653e-001  1.102e-001    -0.104
	KX               3.088e-002  3.088e-002  2.059e-002    -0.113
	NH4X             4.884e-053  4.884e-053  3.256e-053    -0.124

-----------------------------Solution composition------------------------------

	Elements           Molality       Moles

	C                7.808e-003  7.817e-003
	Ca               1.253e-002  1.255e-002
	Cl               4.232e-004  4.237e-004
	K                1.201e-003  1.202e-003
	Mg               9.740e-003  9.751e-003
	N                2.356e-005  2.359e-005
	Na               3.176e-002  3.179e-002
	S                3.494e-002  3.498e-002

----------------------------Description of solution----------------------------

                                       pH  =   6.742      Charge balance
                                       pe  =  12.586      Adjusted to redox equilibrium
       Specific Conductance (uS/cm, 25 oC) = 5203
                          Density (g/cm3)  =   1.00200
                        Activity of water  =   0.999
                           Ionic strength  =  9.198e-002
                       Mass of water (kg)  =  1.001e+000
                 Total alkalinity (eq/kg)  =  6.039e-003
                       Total CO2 (mol/kg)  =  7.808e-003
                      Temperature (deg C)  =  25.000
                  Electrical balance (eq)  =  1.136e-003
 Percent error, 100*(Cat-|An|)/(Cat+|An|)  =   1.02
                               Iterations  =   1
                                  Total H  = 1.111451e+002
                                  Total O  = 5.573121e+001

----------------------------Distribution of species----------------------------

                                                   Log       Log         Log 
   Species                 Molality    Activity  Molality  Activity     Gamma

   H+                    2.187e-007  1.813e-007    -6.660    -6.742    -0.081
   OH-                   7.177e-008  5.513e-008    -7.144    -7.259    -0.115
   H2O                   5.551e+001  9.985e-001     1.744    -0.001     0.000
C(-4)           0.000e+000
   CH4                   0.000e+000  0.000e+000  -132.979  -132.970     0.009
C(4)            7.808e-003
   HCO3-                 5.611e-003  4.453e-003    -2.251    -2.351    -0.100
   CO2                   1.780e-003  1.818e-003    -2.750    -2.740     0.009
   CaHCO3+               2.059e-004  1.634e-004    -3.686    -3.787    -0.100
   MgHCO3+               1.412e-004  1.110e-004    -3.850    -3.955    -0.104
   NaHCO3                5.853e-005  5.978e-005    -4.233    -4.223     0.009
   CaCO3                 5.448e-006  5.565e-006    -5.264    -5.255     0.009
   CO3-2                 2.905e-006  1.152e-006    -5.537    -5.939    -0.402
   MgCO3                 2.292e-006  2.341e-006    -5.640    -5.631     0.009
   NaCO3-                6.512e-007  5.120e-007    -6.186    -6.291    -0.104
Ca              1.253e-002
   Ca+2                  7.181e-003  2.876e-003    -2.144    -2.541    -0.397
   CaSO4                 5.142e-003  5.253e-003    -2.289    -2.280     0.009
   CaHCO3+               2.059e-004  1.634e-004    -3.686    -3.787    -0.100
   CaCO3                 5.448e-006  5.565e-006    -5.264    -5.255     0.009
   CaHSO4+               7.097e-009  5.579e-009    -8.149    -8.253    -0.104
   CaOH+                 3.344e-009  2.629e-009    -8.476    -8.580    -0.104
Cl              4.232e-004
   Cl-                   4.232e-004  3.261e-004    -3.373    -3.487    -0.113
H(0)            0.000e+000
   H2                    0.000e+000  0.000e+000   -41.814   -41.805     0.009
K               1.201e-003
   K+                    1.129e-003  8.704e-004    -2.947    -3.060    -0.113
   KSO4-                 7.119e-005  5.597e-005    -4.148    -4.252    -0.104
   KOH                   1.627e-011  1.662e-011   -10.789   -10.779     0.009
Mg              9.740e-003
   Mg+2                  5.121e-003  2.131e-003    -2.291    -2.671    -0.381
   MgSO4                 4.475e-003  4.571e-003    -2.349    -2.340     0.009
   MgHCO3+               1.412e-004  1.110e-004    -3.850    -3.955    -0.104
   MgCO3                 2.292e-006  2.341e-006    -5.640    -5.631     0.009
   MgOH+                 5.419e-008  4.260e-008    -7.266    -7.371    -0.104
N(-3)           0.000e+000
   NH4+                  0.000e+000  0.000e+000   -53.648   -53.772    -0.124
   NH4SO4-               0.000e+000  0.000e+000   -54.596   -54.700    -0.104
   NH3                   0.000e+000  0.000e+000   -56.284   -56.274     0.009
N(0)            1.328e-009
   N2                    6.638e-010  6.780e-010    -9.178    -9.169     0.009
N(3)            1.939e-015
   NO2-                  1.939e-015  1.475e-015   -14.712   -14.831    -0.119
N(5)            2.356e-005
   NO3-                  2.356e-005  1.792e-005    -4.628    -4.747    -0.119
Na              3.176e-002
   Na+                   3.031e-002  2.388e-002    -1.518    -1.622    -0.104
   NaSO4-                1.393e-003  1.095e-003    -2.856    -2.961    -0.104
   NaHCO3                5.853e-005  5.978e-005    -4.233    -4.223     0.009
   NaCO3-                6.512e-007  5.120e-007    -6.186    -6.291    -0.104
   NaOH                  8.505e-010  8.687e-010    -9.070    -9.061     0.009
O(0)            3.319e-009
   O2                    1.659e-009  1.695e-009    -8.780    -8.771     0.009
S(-2)           0.000e+000
   H2S                   0.000e+000  0.000e+000  -129.557  -129.548     0.009
   HS-                   0.000e+000  0.000e+000  -129.634  -129.748    -0.115
   S-2                   0.000e+000  0.000e+000  -135.512  -135.925    -0.412
S(6)            3.494e-002
   SO4-2                 2.386e-002  9.152e-003    -1.622    -2.038    -0.416
   CaSO4                 5.142e-003  5.253e-003    -2.289    -2.280     0.009
   MgSO4                 4.475e-003  4.571e-003    -2.349    -2.340     0.009
   NaSO4-                1.393e-003  1.095e-003    -2.856    -2.961    -0.104
   KSO4-                 7.119e-005  5.597e-005    -4.148    -4.252    -0.104
   HSO4-                 2.052e-007  1.613e-007    -6.688    -6.792    -0.104
   CaHSO4+               7.097e-009  5.579e-009    -8.149    -8.253    -0.104
   NH4SO4-               0.000e+000  0.000e+000   -54.596   -54.700    -0.104

------------------------------Saturation indices-------------------------------

	Phase               SI log IAP  log KT

	Anhydrite        -0.22   -4.58   -4.36  CaSO4
	Aragonite        -0.14   -8.48   -8.34  CaCO3
	Calcite           0.00   -8.48   -8.48  CaCO3
	CH4(g)         -130.11 -132.97   -2.86  CH4
	CO2(g)           -1.27   -2.74   -1.47  CO2
	Dolomite          0.00  -17.09  -17.09  CaMg(CO3)2
	Gypsum            0.00   -4.58   -4.58  CaSO4:2H2O
	H2(g)           -38.66  -41.81   -3.15  H2
	H2O(g)           -1.51   -0.00    1.51  H2O
	H2S(g)         -128.55 -129.55   -1.00  H2S
	Halite           -6.69   -5.11    1.58  NaCl
	N2(g)            -5.91   -9.17   -3.26  N2
	NH3(g)          -58.04  -56.27    1.77  NH3
	O2(g)            -5.88   -8.77   -2.89  O2
	Sulfur          -95.78  -90.89    4.88  S


Cell 30.

Using solution 30.	Solution after simulation 5.
Using exchange 30.	Exchange assemblage after simulation 5.
Using pure phase assemblage 30.	Pure-phase assemblage after simulation 5.

-------------------------------Phase assemblage--------------------------------

                                                      Moles in assemblage
Phase                  SI log IAP  log KT      Initial       Final       Delta

Calcite              0.00   -8.48   -8.48   1.025e+000  1.025e+000 -2.220e-015
Dolomite             0.00  -17.09  -17.09   9.883e-001  9.883e-001  0.000e+000
Gypsum               0.00   -4.58   -4.58   9.690e-001  9.690e-001  1.221e-015

-----------------------------Exchange composition------------------------------

X               1.500e+000 mol

	                               Equiv-    Equivalent      Log 
	Species             Moles      alents      Fraction     Gamma

	CaX2             4.496e-001  8.992e-001  5.995e-001    -0.397
	MgX2             2.023e-001  4.046e-001  2.697e-001    -0.381
	NaX              1.653e-001  1.653e-001  1.102e-001    -0.104
	KX               3.088e-002  3.088e-002  2.059e-002    -0.113
	NH4X             4.884e-053  4.884e-053  3.256e-053    -0.124

-----------------------------Solution composition------------------------------

	Elements           Molality       Moles

	C                7.808e-003  7.817e-003
	Ca               1.253e-002  1.255e-002
	Cl               4.232e-004  4.237e-004
	K                1.201e-003  1.202e-003
	Mg               9.740e-003  9.751e-003
	N                2.356e-005  2.359e-005
	Na               3.176e-002  3.179e-002
	S                3.494e-002  3.498e-002

----------------------------Description of solution----------------------------

                                       pH  =   6.742      Charge balance
                                       pe  =  12.586      Adjusted to redox equilibrium
       Specific Conductance (uS/cm, 25 oC) = 5203
                          Density (g/cm3)  =   1.00200
                        Activity of water  =   0.999
                           Ionic strength  =  9.198e-002
                       Mass of water (kg)  =  1.001e+000
                 Total alkalinity (eq/kg)  =  6.039e-003
                       Total CO2 (mol/kg)  =  7.808e-003
                      Temperature (deg C)  =  25.000
                  Electrical balance (eq)  =  1.136e-003
 Percent error, 100*(Cat-|An|)/(Cat+|An|)  =   1.02
                               Iterations  =   1
                                  Total H  = 1.111451e+002
                                  Total O  = 5.573121e+001

----------------------------Distribution of species----------------------------

                                                   Log       Log         Log 
   Species                 Molality    Activity  Molality  Activity     Gamma

   H+                    2.187e-007  1.813e-007    -6.660    -6.742    -0.081
   OH-                   7.177e-008  5.513e-008    -7.144    -7.259    -0.115
   H2O                   5.551e+001  9.985e-001     1.744    -0.001     0.000
C(-4)           0.000e+000
   CH4                   0.000e+000  0.000e+000  -132.979  -132.970     0.009
C(4)            7.808e-003
   HCO3-                 5.611e-003  4.453e-003    -2.251    -2.351    -0.100
   CO2                   1.780e-003  1.818e-003    -2.750    -2.740     0.009
   CaHCO3+               2.059e-004  1.634e-004    -3.686    -3.787    -0.100
   MgHCO3+               1.412e-004  1.110e-004    -3.850    -3.955    -0.104
   NaHCO3                5.853e-005  5.978e-005    -4.233    -4.223     0.009
   CaCO3                 5.448e-006  5.565e-006    -5.264    -5.255     0.009
   CO3-2                 2.905e-006  1.152e-006    -5.537    -5.939    -0.402
   MgCO3                 2.292e-006  2.341e-006    -5.640    -5.631     0.009
   NaCO3-                6.512e-007  5.120e-007    -6.186    -6.291    -0.104
Ca              1.253e-002
   Ca+2                  7.181e-003  2.876e-003    -2.144    -2.541    -0.397
   CaSO4                 5.142e-003  5.253e-003    -2.289    -2.280     0.009
   CaHCO3+               2.059e-004  1.634e-004    -3.686    -3.787    -0.100
   CaCO3                 5.448e-006  5.565e-006    -5.264    -5.255     0.009
   CaHSO4+               7.097e-009  5.579e-009    -8.149    -8.253    -0.104
   CaOH+                 3.344e-009  2.629e-009    -8.476    -8.580    -0.104
Cl              4.232e-004
   Cl-                   4.232e-004  3.261e-004    -3.373    -3.487    -0.113
H(0)            0.000e+000
   H2                    0.000e+000  0.000e+000   -41.814   -41.805     0.009
K               1.201e-003
   K+                    1.129e-003  8.704e-004    -2.947    -3.060    -0.113
   KSO4-                 7.119e-005  5.597e-005    -4.148    -4.252    -0.104
   KOH                   1.627e-011  1.662e-011   -10.789   -10.779     0.009
Mg              9.740e-003
   Mg+2                  5.121e-003  2.131e-003    -2.291    -2.671    -0.381
   MgSO4                 4.475e-003  4.571e-003    -2.349    -2.340     0.009
   MgHCO3+               1.412e-004  1.110e-004    -3.850    -3.955    -0.104
   MgCO3                 2.292e-006  2.341e-006    -5.640    -5.631     0.009
   MgOH+                 5.419e-008  4.260e-008    -7.266    -7.371    -0.104
N(-3)           0.000e+000
   NH4+                  0.000e+000  0.000e+000   -53.648   -53.772    -0.124
   NH4SO4-               0.000e+000  0.000e+000   -54.596   -54.700    -0.104
   NH3                   0.000e+000  0.000e+000   -56.284   -56.274     0.009
N(0)            1.328e-009
   N2                    6.638e-010  6.780e-010    -9.178    -9.169     0.009
N(3)            1.939e-015
   NO2-                  1.939e-015  1.475e-015   -14.712   -14.831    -0.119
N(5)            2.356e-005
   NO3-                  2.356e-005  1.792e-005    -4.628    -4.747    -0.119
Na              3.176e-002
   Na+                   3.031e-002  2.388e-002    -1.518    -1.622    -0.104
   NaSO4-                1.393e-003  1.095e-003    -2.856    -2.961    -0.104
   NaHCO3                5.853e-005  5.978e-005    -4.233    -4.223     0.009
   NaCO3-                6.512e-007  5.120e-007    -6.186    -6.291    -0.104
   NaOH                  8.505e-010  8.687e-010    -9.070    -9.061     0.009
O(0)            3.319e-009
   O2                    1.659e-009  1.695e-009    -8.780    -8.771     0.009
S(-2)           0.000e+000
   H2S                   0.000e+000  0.000e+000  -129.557  -129.548     0.009
   HS-                   0.000e+000  0.000e+000  -129.634  -129.748    -0.115
   S-2                   0.000e+000  0.000e+000  -135.512  -135.925    -0.412
S(6)            3.494e-002
   SO4-2                 2.386e-002  9.152e-003    -1.622    -2.038    -0.416
   CaSO4                 5.142e-003  5.253e-003    -2.289    -2.280     0.009
   MgSO4                 4.475e-003  4.571e-003    -2.349    -2.340     0.009
   NaSO4-                1.393e-003  1.095e-003    -2.856    -2.961    -0.104
   KSO4-                 7.119e-005  5.597e-005    -4.148    -4.252    -0.104
   HSO4-                 2.052e-007  1.613e-007    -6.688    -6.792    -0.104
   CaHSO4+               7.097e-009  5.579e-009    -8.149    -8.253    -0.104
   NH4SO4-               0.000e+000  0.000e+000   -54.596   -54.700    -0.104

------------------------------Saturation indices-------------------------------

	Phase               SI log IAP  log KT

	Anhydrite        -0.22   -4.58   -4.36  CaSO4
	Aragonite        -0.14   -8.48   -8.34  CaCO3
	Calcite           0.00   -8.48   -8.48  CaCO3
	CH4(g)         -130.11 -132.97   -2.86  CH4
	CO2(g)           -1.27   -2.74   -1.47  CO2
	Dolomite          0.00  -17.09  -17.09  CaMg(CO3)2
	Gypsum            0.00   -4.58   -4.58  CaSO4:2H2O
	H2(g)           -38.66  -41.81   -3.15  H2
	H2O(g)           -1.51   -0.00    1.51  H2O
	H2S(g)         -128.55 -129.55   -1.00  H2S
	Halite           -6.69   -5.11    1.58  NaCl
	N2(g)            -5.91   -9.17   -3.26  N2
	NH3(g)          -58.04  -56.27    1.77  NH3
	O2(g)            -5.88   -8.77   -2.89  O2
	Sulfur          -95.78  -90.89    4.88  S

------------------
End of simulation.
------------------

------------------------------------
Reading input data for simulation 6.
------------------------------------

-----------
End of run.
-----------

