   Input file: dump
  Output file: dump.out
Database file: ../database/Amm.dat

------------------
Reading data base.
------------------

	SOLUTION_MASTER_SPECIES
	SOLUTION_SPECIES
	PHASES
	EXCHANGE_MASTER_SPECIES
	EXCHANGE_SPECIES
	SURFACE_MASTER_SPECIES
	SURFACE_SPECIES
	END
------------------------------------
Reading input data for simulation 1.
------------------------------------

	database ../database/Amm.dat
	solution 0
	units mol/kgw
	water 0.4
	pH 7 charge
	Na 1
	solution 101
	units mol/kgw
	water 0.2
	pH 7 charge
	solution 1-100
	units mol/kgw
	pH 7 charge
	water 0.2
	Amm 1
	GAS_PHASE 1-100
	    fixed_volume
	    volume 1
	    temperature 30
	    Amm(g)    0.1
	    N2(g)     0.9
	transport
	cells 100
	shifts 100
	lengths 0.1
	time_step 0.1
	flow_direction diffusion
	bcond 1 1
	dump dump.phrq
	dump_frequency 10
	dump_restart 0
	print_frequency 50
	end
WARNING: Cell-lengths were read for 1 cells. Last value is used till cell 100.
WARNING: No dispersivities were read; disp = 0 assumed.
-------------------------------------------
Beginning of initial solution calculations.
-------------------------------------------

Initial solution 0.	

-----------------------------Solution composition------------------------------

	Elements           Molality       Moles

	Na               1.000e+000  4.000e-001

----------------------------Description of solution----------------------------

                                       pH  =  13.710      Charge balance
                                       pe  =   4.000    
                        Activity of water  =   0.969
                           Ionic strength  =  8.389e-001
                       Mass of water (kg)  =  4.000e-001
                 Total alkalinity (eq/kg)  =  1.000e+000
                    Total carbon (mol/kg)  =  0.000e+000
                       Total CO2 (mol/kg)  =  0.000e+000
                      Temperature (deg C)  =  25.000
                  Electrical balance (eq)  =  9.467e-012
 Percent error, 100*(Cat-|An|)/(Cat+|An|)  =   0.00
                               Iterations  =  10
                                  Total H  = 4.480497e+001
                                  Total O  = 2.260249e+001

----------------------------Distribution of species----------------------------

                                                   Log       Log         Log 
   Species                 Molality    Activity  Molality  Activity     Gamma

   OH-                   8.389e-001  4.971e-001    -0.076    -0.304    -0.227
   H+                    2.607e-014  1.951e-014   -13.584   -13.710    -0.126
   H2O                   5.551e+001  9.687e-001     1.744    -0.014     0.000
H(0)            4.442e-039
   H2                    2.221e-039  2.694e-039   -38.653   -38.570     0.084
Na              1.000e+000
   Na+                   8.389e-001  5.955e-001    -0.076    -0.225    -0.149
   NaOH                  1.611e-001  1.954e-001    -0.793    -0.709     0.084
O(0)            8.885e-016
   O2                    4.442e-016  5.389e-016   -15.352   -15.268     0.084

------------------------------Saturation indices-------------------------------

	Phase               SI log IAP  log KT

	H2(g)           -35.42  -38.57   -3.15  H2
	O2(g)           -12.31  -15.27   -2.96  O2

Initial solution 1.	

-----------------------------Solution composition------------------------------

	Elements           Molality       Moles

	Amm              1.000e+000  2.000e-001

----------------------------Description of solution----------------------------

                                       pH  =  11.629      Charge balance
                                       pe  =   4.000    
                        Activity of water  =   0.983
                           Ionic strength  =  4.506e-003
                       Mass of water (kg)  =  2.000e-001
                 Total alkalinity (eq/kg)  =  1.000e+000
                    Total carbon (mol/kg)  =  0.000e+000
                       Total CO2 (mol/kg)  =  0.000e+000
                      Temperature (deg C)  =  25.000
                  Electrical balance (eq)  =  2.093e-017
 Percent error, 100*(Cat-|An|)/(Cat+|An|)  =   0.00
                               Iterations  =  10
                                  Total H  = 2.220429e+001
                                  Total O  = 1.110214e+001

----------------------------Distribution of species----------------------------

                                                   Log       Log         Log 
   Species                 Molality    Activity  Molality  Activity     Gamma

   OH-                   4.506e-003  4.189e-003    -2.346    -2.378    -0.032
   H+                    2.509e-012  2.349e-012   -11.601   -11.629    -0.029
   H2O                   5.551e+001  9.829e-001     1.744    -0.007     0.000
Amm             1.000e+000
   Amm                   9.955e-001  9.965e-001    -0.002    -0.002     0.000
   AmmH+                 4.506e-003  4.182e-003    -2.346    -2.379    -0.032
H(0)            7.806e-035
   H2                    3.903e-035  3.907e-035   -34.409   -34.408     0.000
O(0)            5.272e-024
   O2                    2.636e-024  2.639e-024   -23.579   -23.579     0.000

------------------------------Saturation indices-------------------------------

	Phase               SI log IAP  log KT

	Amm(g)           -1.77   -0.00    1.77  Amm
	H2(g)           -31.26  -34.41   -3.15  H2
	O2(g)           -20.62  -23.58   -2.96  O2

Initial solution 101.	

-----------------------------Solution composition------------------------------

	Elements           Molality       Moles

	Pure water     

----------------------------Description of solution----------------------------

                                       pH  =   7.000      Charge balance
                                       pe  =   4.000    
                        Activity of water  =   1.000
                           Ionic strength  =  1.001e-007
                       Mass of water (kg)  =  2.000e-001
                 Total alkalinity (eq/kg)  =  3.121e-018
                    Total carbon (mol/kg)  =  0.000e+000
                       Total CO2 (mol/kg)  =  0.000e+000
                      Temperature (deg C)  =  25.000
                  Electrical balance (eq)  = -6.242e-019
 Percent error, 100*(Cat-|An|)/(Cat+|An|)  =  -0.00
                               Iterations  =   2
                                  Total H  = 2.220249e+001
                                  Total O  = 1.110124e+001

----------------------------Distribution of species----------------------------

                                                   Log       Log         Log 
   Species                 Molality    Activity  Molality  Activity     Gamma

   OH-                   1.001e-007  1.001e-007    -7.000    -7.000    -0.000
   H+                    1.001e-007  1.001e-007    -7.000    -7.000    -0.000
   H2O                   5.551e+001  1.000e+000     1.744    -0.000     0.000
H(0)            1.417e-025
   H2                    7.087e-026  7.087e-026   -25.150   -25.150     0.000
O(0)            0.000e+000
   O2                    0.000e+000  0.000e+000   -42.081   -42.081     0.000

------------------------------Saturation indices-------------------------------

	Phase               SI log IAP  log KT

	H2(g)           -22.00  -25.15   -3.15  H2
	O2(g)           -39.12  -42.08   -2.96  O2

-----------------------------------------
Beginning of batch-reaction calculations.
-----------------------------------------

Reaction step 1.

Using solution 0.	
Using gas phase 1.	

-----------------------------------Gas phase-----------------------------------


Total pressure:   0.8815   atmospheres
    Gas volume:  1.00e+000 liters

                                                        Moles in gas
                                            ----------------------------------
Component                log P           P     Initial       Final       Delta

Amm(g)                   -3.68  2.066e-004  4.020e-003  8.444e-006 -4.011e-003
N2(g)                    -0.05  8.812e-001  3.618e-002  3.602e-002 -1.597e-004

-----------------------------Solution composition------------------------------

	Elements           Molality       Moles

	Amm              1.003e-002  4.011e-003
	N                7.984e-004  3.194e-004
	Na               1.000e+000  4.000e-001

----------------------------Description of solution----------------------------

                                       pH  =  13.710      Charge balance
                                       pe  =   2.188      Adjusted to redox equilibrium
                        Activity of water  =   0.969
                           Ionic strength  =  8.389e-001
                       Mass of water (kg)  =  4.000e-001
                 Total alkalinity (eq/kg)  =  1.010e+000
                    Total carbon (mol/kg)  =  0.000e+000
                       Total CO2 (mol/kg)  =  0.000e+000
                      Temperature (deg C)  =  25.000
                  Electrical balance (eq)  =  8.827e-012
 Percent error, 100*(Cat-|An|)/(Cat+|An|)  =   0.00
                               Iterations  =  15
                                  Total H  = 4.480497e+001
                                  Total O  = 2.260249e+001

----------------------------Distribution of species----------------------------

                                                   Log       Log         Log 
   Species                 Molality    Activity  Molality  Activity     Gamma

   OH-                   8.389e-001  4.971e-001    -0.076    -0.304    -0.227
   H+                    2.606e-014  1.950e-014   -13.584   -13.710    -0.126
   H2O                   5.551e+001  9.686e-001     1.744    -0.014     0.000
Amm             1.003e-002
   Amm                   1.003e-002  1.216e-002    -1.999    -1.915     0.084
   AmmH+                 7.826e-007  4.239e-007    -6.106    -6.373    -0.266
H(0)            1.869e-035
   H2                    9.343e-036  1.133e-035   -35.030   -34.946     0.084
N(0)            7.984e-004
   N2                    3.992e-004  4.843e-004    -3.399    -3.315     0.084
N(3)            9.848e-016
   NO2-                  9.848e-016  5.599e-016   -15.007   -15.252    -0.245
N(5)            1.604e-012
   NO3-                  1.604e-012  9.117e-013   -11.795   -12.040    -0.245
Na              1.000e+000
   Na+                   8.389e-001  5.955e-001    -0.076    -0.225    -0.149
   NaOH                  1.611e-001  1.954e-001    -0.793    -0.709     0.084
O(0)            5.019e-023
   O2                    2.510e-023  3.045e-023   -22.600   -22.516     0.084

------------------------------Saturation indices-------------------------------

	Phase               SI log IAP  log KT

	Amm(g)           -3.68   -1.91    1.77  Amm
	H2(g)           -31.80  -34.95   -3.15  H2
	N2(g)            -0.05   -3.31   -3.26  N2
	O2(g)           -19.56  -22.52   -2.96  O2

------------------------------------
Beginning of transport calculations.
------------------------------------

-------------------------------
Equilibrating initial solutions
-------------------------------

Using solution 1.	
Using gas phase 1.	

-----------------------------------Gas phase-----------------------------------


Total pressure:   0.9000   atmospheres
    Gas volume:  1.00e+000 liters

                                                        Moles in gas
                                            ----------------------------------
Component                log P           P     Initial       Final       Delta

Amm(g)                   -1.76  1.720e-002  4.020e-003  7.032e-004  0.000e+000
N2(g)                    -0.05  8.828e-001  3.618e-002  3.608e-002  0.000e+000

-----------------------------Solution composition------------------------------

	Elements           Molality       Moles

	Amm              1.017e+000  2.033e-001
	N                9.692e-004  1.938e-004

----------------------------Description of solution----------------------------

                                       pH  =  11.633      Charge balance
                                       pe  =   3.742      Adjusted to redox equilibrium
                        Activity of water  =   0.983
                           Ionic strength  =  4.544e-003
                       Mass of water (kg)  =  2.000e-001
                 Total alkalinity (eq/kg)  =  1.017e+000
                    Total carbon (mol/kg)  =  0.000e+000
                       Total CO2 (mol/kg)  =  0.000e+000
                      Temperature (deg C)  =  25.000
                  Electrical balance (eq)  =  2.006e-017
 Percent error, 100*(Cat-|An|)/(Cat+|An|)  =   0.00
                               Iterations  =  10
                                  Total H  = 2.220429e+001
                                  Total O  = 1.110214e+001

----------------------------Distribution of species----------------------------

                                                   Log       Log         Log 
   Species                 Molality    Activity  Molality  Activity     Gamma

   OH-                   4.544e-003  4.223e-003    -2.343    -2.374    -0.032
   H+                    2.488e-012  2.330e-012   -11.604   -11.633    -0.029
   H2O                   5.551e+001  9.826e-001     1.744    -0.008     0.000
Amm             1.017e+000
   Amm                   1.012e+000  1.013e+000     0.005     0.006     0.000
   AmmH+                 4.544e-003  4.216e-003    -2.343    -2.375    -0.033
H(0)            2.519e-034
   H2                    1.260e-034  1.261e-034   -33.900   -33.899     0.000
N(0)            9.692e-004
   N2                    4.846e-004  4.851e-004    -3.315    -3.314     0.000
N(3)            1.402e-019
   NO2-                  1.402e-019  1.302e-019   -18.853   -18.886    -0.032
N(5)            2.082e-017
   NO3-                  2.082e-017  1.933e-017   -16.682   -16.714    -0.032
O(0)            5.059e-025
   O2                    2.529e-025  2.532e-025   -24.597   -24.597     0.000

------------------------------Saturation indices-------------------------------

	Phase               SI log IAP  log KT

	Amm(g)           -1.76    0.01    1.77  Amm
	H2(g)           -30.75  -33.90   -3.15  H2
	N2(g)            -0.05   -3.31   -3.26  N2
	O2(g)           -21.64  -24.60   -2.96  O2

Using solution 2.	
Using gas phase 2.	Gas defined in simulation 1.

-----------------------------------Gas phase-----------------------------------


Total pressure:   0.9000   atmospheres
    Gas volume:  1.00e+000 liters

                                                        Moles in gas
                                            ----------------------------------
Component                log P           P     Initial       Final       Delta

Amm(g)                   -1.76  1.720e-002  4.020e-003  7.032e-004  0.000e+000
N2(g)                    -0.05  8.828e-001  3.618e-002  3.608e-002  0.000e+000

-----------------------------Solution composition------------------------------

	Elements           Molality       Moles

	Amm              1.017e+000  2.033e-001
	N                9.692e-004  1.938e-004

----------------------------Description of solution----------------------------

                                       pH  =  11.633      Charge balance
                                       pe  =   3.839      Adjusted to redox equilibrium
                        Activity of water  =   0.983
                           Ionic strength  =  4.544e-003
                       Mass of water (kg)  =  2.000e-001
                 Total alkalinity (eq/kg)  =  1.017e+000
                    Total carbon (mol/kg)  =  0.000e+000
                       Total CO2 (mol/kg)  =  0.000e+000
                      Temperature (deg C)  =  25.000
                  Electrical balance (eq)  = -3.821e-013
 Percent error, 100*(Cat-|An|)/(Cat+|An|)  =  -0.00
                               Iterations  =   2
                                  Total H  = 2.220429e+001
                                  Total O  = 1.110214e+001

----------------------------Distribution of species----------------------------

                                                   Log       Log         Log 
   Species                 Molality    Activity  Molality  Activity     Gamma

   OH-                   4.544e-003  4.223e-003    -2.343    -2.374    -0.032
   H+                    2.488e-012  2.330e-012   -11.604   -11.633    -0.029
   H2O                   5.551e+001  9.826e-001     1.744    -0.008     0.000
Amm             1.017e+000
   Amm                   1.012e+000  1.013e+000     0.005     0.006     0.000
   AmmH+                 4.544e-003  4.216e-003    -2.343    -2.375    -0.033
H(0)            1.613e-034
   H2                    8.067e-035  8.076e-035   -34.093   -34.093     0.000
N(0)            9.692e-004
   N2                    4.846e-004  4.851e-004    -3.315    -3.314     0.000
N(3)            2.734e-019
   NO2-                  2.734e-019  2.539e-019   -18.563   -18.595    -0.032
N(5)            6.340e-017
   NO3-                  6.340e-017  5.887e-017   -16.198   -16.230    -0.032
O(0)            1.233e-024
   O2                    6.166e-025  6.172e-025   -24.210   -24.210     0.000

------------------------------Saturation indices-------------------------------

	Phase               SI log IAP  log KT

	Amm(g)           -1.76    0.01    1.77  Amm
	H2(g)           -30.94  -34.09   -3.15  H2
	N2(g)            -0.05   -3.31   -3.26  N2
	O2(g)           -21.25  -24.21   -2.96  O2

Using solution 3.	
Using gas phase 3.	Gas defined in simulation 1.

-----------------------------------Gas phase-----------------------------------


Total pressure:   0.9000   atmospheres
    Gas volume:  1.00e+000 liters

                                                        Moles in gas
                                            ----------------------------------
Component                log P           P     Initial       Final       Delta

Amm(g)                   -1.76  1.720e-002  4.020e-003  7.032e-004  0.000e+000
N2(g)                    -0.05  8.828e-001  3.618e-002  3.608e-002  0.000e+000

-----------------------------Solution composition------------------------------

	Elements           Molality       Moles

	Amm              1.017e+000  2.033e-001
	N                9.692e-004  1.938e-004

----------------------------Description of solution----------------------------

                                       pH  =  11.633      Charge balance
                                       pe  =   3.839      Adjusted to redox equilibrium
                        Activity of water  =   0.983
                           Ionic strength  =  4.544e-003
                       Mass of water (kg)  =  2.000e-001
                 Total alkalinity (eq/kg)  =  1.017e+000
                    Total carbon (mol/kg)  =  0.000e+000
                       Total CO2 (mol/kg)  =  0.000e+000
                      Temperature (deg C)  =  25.000
                  Electrical balance (eq)  = -3.821e-013
 Percent error, 100*(Cat-|An|)/(Cat+|An|)  =  -0.00
                               Iterations  =   2
                                  Total H  = 2.220429e+001
                                  Total O  = 1.110214e+001

----------------------------Distribution of species----------------------------

                                                   Log       Log         Log 
   Species                 Molality    Activity  Molality  Activity     Gamma

   OH-                   4.544e-003  4.223e-003    -2.343    -2.374    -0.032
   H+                    2.488e-012  2.330e-012   -11.604   -11.633    -0.029
   H2O                   5.551e+001  9.826e-001     1.744    -0.008     0.000
Amm             1.017e+000
   Amm                   1.012e+000  1.013e+000     0.005     0.006     0.000
   AmmH+                 4.544e-003  4.216e-003    -2.343    -2.375    -0.033
H(0)            1.613e-034
   H2                    8.067e-035  8.076e-035   -34.093   -34.093     0.000
N(0)            9.692e-004
   N2                    4.846e-004  4.851e-004    -3.315    -3.314     0.000
N(3)            2.734e-019
   NO2-                  2.734e-019  2.539e-019   -18.563   -18.595    -0.032
N(5)            6.340e-017
   NO3-                  6.340e-017  5.887e-017   -16.198   -16.230    -0.032
O(0)            1.233e-024
   O2                    6.166e-025  6.172e-025   -24.210   -24.210     0.000

------------------------------Saturation indices-------------------------------

	Phase               SI log IAP  log KT

	Amm(g)           -1.76    0.01    1.77  Amm
	H2(g)           -30.94  -34.09   -3.15  H2
	N2(g)            -0.05   -3.31   -3.26  N2
	O2(g)           -21.25  -24.21   -2.96  O2

Using solution 4.	
Using gas phase 4.	Gas defined in simulation 1.

-----------------------------------Gas phase-----------------------------------


Total pressure:   0.9000   atmospheres
    Gas volume:  1.00e+000 liters

                                                        Moles in gas
                                            ----------------------------------
Component                log P           P     Initial       Final       Delta

Amm(g)                   -1.76  1.720e-002  4.020e-003  7.032e-004  0.000e+000
N2(g)                    -0.05  8.828e-001  3.618e-002  3.608e-002  0.000e+000

-----------------------------Solution composition------------------------------

	Elements           Molality       Moles

	Amm              1.017e+000  2.033e-001
	N                9.692e-004  1.938e-004

----------------------------Description of solution----------------------------

                                       pH  =  11.633      Charge balance
                                       pe  =   3.839      Adjusted to redox equilibrium
                        Activity of water  =   0.983
                           Ionic strength  =  4.544e-003
                       Mass of water (kg)  =  2.000e-001
                 Total alkalinity (eq/kg)  =  1.017e+000
                    Total carbon (mol/kg)  =  0.000e+000
                       Total CO2 (mol/kg)  =  0.000e+000
                      Temperature (deg C)  =  25.000
                  Electrical balance (eq)  = -3.821e-013
 Percent error, 100*(Cat-|An|)/(Cat+|An|)  =  -0.00
                               Iterations  =   2
                                  Total H  = 2.220429e+001
                                  Total O  = 1.110214e+001

----------------------------Distribution of species----------------------------

                                                   Log       Log         Log 
   Species                 Molality    Activity  Molality  Activity     Gamma

   OH-                   4.544e-003  4.223e-003    -2.343    -2.374    -0.032
   H+                    2.488e-012  2.330e-012   -11.604   -11.633    -0.029
   H2O                   5.551e+001  9.826e-001     1.744    -0.008     0.000
Amm             1.017e+000
   Amm                   1.012e+000  1.013e+000     0.005     0.006     0.000
   AmmH+                 4.544e-003  4.216e-003    -2.343    -2.375    -0.033
H(0)            1.613e-034
   H2                    8.067e-035  8.076e-035   -34.093   -34.093     0.000
N(0)            9.692e-004
   N2                    4.846e-004  4.851e-004    -3.315    -3.314     0.000
N(3)            2.734e-019
   NO2-                  2.734e-019  2.539e-019   -18.563   -18.595    -0.032
N(5)            6.340e-017
   NO3-                  6.340e-017  5.887e-017   -16.198   -16.230    -0.032
O(0)            1.233e-024
   O2                    6.166e-025  6.172e-025   -24.210   -24.210     0.000

------------------------------Saturation indices-------------------------------

	Phase               SI log IAP  log KT

	Amm(g)           -1.76    0.01    1.77  Amm
	H2(g)           -30.94  -34.09   -3.15  H2
	N2(g)            -0.05   -3.31   -3.26  N2
	O2(g)           -21.25  -24.21   -2.96  O2

Using solution 5.	
Using gas phase 5.	Gas defined in simulation 1.

-----------------------------------Gas phase-----------------------------------


Total pressure:   0.9000   atmospheres
    Gas volume:  1.00e+000 liters

                                                        Moles in gas
                                            ----------------------------------
Component                log P           P     Initial       Final       Delta

Amm(g)                   -1.76  1.720e-002  4.020e-003  7.032e-004  0.000e+000
N2(g)                    -0.05  8.828e-001  3.618e-002  3.608e-002  0.000e+000

-----------------------------Solution composition------------------------------

	Elements           Molality       Moles

	Amm              1.017e+000  2.033e-001
	N                9.692e-004  1.938e-004

----------------------------Description of solution----------------------------

                                       pH  =  11.633      Charge balance
                                       pe  =   3.839      Adjusted to redox equilibrium
                        Activity of water  =   0.983
                           Ionic strength  =  4.544e-003
                       Mass of water (kg)  =  2.000e-001
                 Total alkalinity (eq/kg)  =  1.017e+000
                    Total carbon (mol/kg)  =  0.000e+000
                       Total CO2 (mol/kg)  =  0.000e+000
                      Temperature (deg C)  =  25.000
                  Electrical balance (eq)  = -3.821e-013
 Percent error, 100*(Cat-|An|)/(Cat+|An|)  =  -0.00
                               Iterations  =   2
                                  Total H  = 2.220429e+001
                                  Total O  = 1.110214e+001

----------------------------Distribution of species----------------------------

                                                   Log       Log         Log 
   Species                 Molality    Activity  Molality  Activity     Gamma

   OH-                   4.544e-003  4.223e-003    -2.343    -2.374    -0.032
   H+                    2.488e-012  2.330e-012   -11.604   -11.633    -0.029
   H2O                   5.551e+001  9.826e-001     1.744    -0.008     0.000
Amm             1.017e+000
   Amm                   1.012e+000  1.013e+000     0.005     0.006     0.000
   AmmH+                 4.544e-003  4.216e-003    -2.343    -2.375    -0.033
H(0)            1.613e-034
   H2                    8.067e-035  8.076e-035   -34.093   -34.093     0.000
N(0)            9.692e-004
   N2                    4.846e-004  4.851e-004    -3.315    -3.314     0.000
N(3)            2.734e-019
   NO2-                  2.734e-019  2.539e-019   -18.563   -18.595    -0.032
N(5)            6.340e-017
   NO3-                  6.340e-017  5.887e-017   -16.198   -16.230    -0.032
O(0)            1.233e-024
   O2                    6.166e-025  6.172e-025   -24.210   -24.210     0.000

------------------------------Saturation indices-------------------------------

	Phase               SI log IAP  log KT

	Amm(g)           -1.76    0.01    1.77  Amm
	H2(g)           -30.94  -34.09   -3.15  H2
	N2(g)            -0.05   -3.31   -3.26  N2
	O2(g)           -21.25  -24.21   -2.96  O2

Using solution 6.	
Using gas phase 6.	Gas defined in simulation 1.

-----------------------------------Gas phase-----------------------------------


Total pressure:   0.9000   atmospheres
    Gas volume:  1.00e+000 liters

                                                        Moles in gas
                                            ----------------------------------
Component                log P           P     Initial       Final       Delta

Amm(g)                   -1.76  1.720e-002  4.020e-003  7.032e-004  0.000e+000
N2(g)                    -0.05  8.828e-001  3.618e-002  3.608e-002  0.000e+000

-----------------------------Solution composition------------------------------

	Elements           Molality       Moles

	Amm              1.017e+000  2.033e-001
	N                9.692e-004  1.938e-004

----------------------------Description of solution----------------------------

                                       pH  =  11.633      Charge balance
                                       pe  =   3.839      Adjusted to redox equilibrium
                        Activity of water  =   0.983
                           Ionic strength  =  4.544e-003
                       Mass of water (kg)  =  2.000e-001
                 Total alkalinity (eq/kg)  =  1.017e+000
                    Total carbon (mol/kg)  =  0.000e+000
                       Total CO2 (mol/kg)  =  0.000e+000
                      Temperature (deg C)  =  25.000
                  Electrical balance (eq)  = -3.821e-013
 Percent error, 100*(Cat-|An|)/(Cat+|An|)  =  -0.00
                               Iterations  =   2
                                  Total H  = 2.220429e+001
                                  Total O  = 1.110214e+001

----------------------------Distribution of species----------------------------

                                                   Log       Log         Log 
   Species                 Molality    Activity  Molality  Activity     Gamma

   OH-                   4.544e-003  4.223e-003    -2.343    -2.374    -0.032
   H+                    2.488e-012  2.330e-012   -11.604   -11.633    -0.029
   H2O                   5.551e+001  9.826e-001     1.744    -0.008     0.000
Amm             1.017e+000
   Amm                   1.012e+000  1.013e+000     0.005     0.006     0.000
   AmmH+                 4.544e-003  4.216e-003    -2.343    -2.375    -0.033
H(0)            1.613e-034
   H2                    8.067e-035  8.076e-035   -34.093   -34.093     0.000
N(0)            9.692e-004
   N2                    4.846e-004  4.851e-004    -3.315    -3.314     0.000
N(3)            2.734e-019
   NO2-                  2.734e-019  2.539e-019   -18.563   -18.595    -0.032
N(5)            6.340e-017
   NO3-                  6.340e-017  5.887e-017   -16.198   -16.230    -0.032
O(0)            1.233e-024
   O2                    6.166e-025  6.172e-025   -24.210   -24.210     0.000

------------------------------Saturation indices-------------------------------

	Phase               SI log IAP  log KT

	Amm(g)           -1.76    0.01    1.77  Amm
	H2(g)           -30.94  -34.09   -3.15  H2
	N2(g)            -0.05   -3.31   -3.26  N2
	O2(g)           -21.25  -24.21   -2.96  O2

Using solution 7.	
Using gas phase 7.	Gas defined in simulation 1.

-----------------------------------Gas phase-----------------------------------


Total pressure:   0.9000   atmospheres
    Gas volume:  1.00e+000 liters

                                                        Moles in gas
                                            ----------------------------------
Component                log P           P     Initial       Final       Delta

Amm(g)                   -1.76  1.720e-002  4.020e-003  7.032e-004  0.000e+000
N2(g)                    -0.05  8.828e-001  3.618e-002  3.608e-002  0.000e+000

-----------------------------Solution composition------------------------------

	Elements           Molality       Moles

	Amm              1.017e+000  2.033e-001
	N                9.692e-004  1.938e-004

----------------------------Description of solution----------------------------

                                       pH  =  11.633      Charge balance
                                       pe  =   3.839      Adjusted to redox equilibrium
                        Activity of water  =   0.983
                           Ionic strength  =  4.544e-003
                       Mass of water (kg)  =  2.000e-001
                 Total alkalinity (eq/kg)  =  1.017e+000
                    Total carbon (mol/kg)  =  0.000e+000
                       Total CO2 (mol/kg)  =  0.000e+000
                      Temperature (deg C)  =  25.000
                  Electrical balance (eq)  = -3.821e-013
 Percent error, 100*(Cat-|An|)/(Cat+|An|)  =  -0.00
                               Iterations  =   2
                                  Total H  = 2.220429e+001
                                  Total O  = 1.110214e+001

----------------------------Distribution of species----------------------------

                                                   Log       Log         Log 
   Species                 Molality    Activity  Molality  Activity     Gamma

   OH-                   4.544e-003  4.223e-003    -2.343    -2.374    -0.032
   H+                    2.488e-012  2.330e-012   -11.604   -11.633    -0.029
   H2O                   5.551e+001  9.826e-001     1.744    -0.008     0.000
Amm             1.017e+000
   Amm                   1.012e+000  1.013e+000     0.005     0.006     0.000
   AmmH+                 4.544e-003  4.216e-003    -2.343    -2.375    -0.033
H(0)            1.613e-034
   H2                    8.067e-035  8.076e-035   -34.093   -34.093     0.000
N(0)            9.692e-004
   N2                    4.846e-004  4.851e-004    -3.315    -3.314     0.000
N(3)            2.734e-019
   NO2-                  2.734e-019  2.539e-019   -18.563   -18.595    -0.032
N(5)            6.340e-017
   NO3-                  6.340e-017  5.887e-017   -16.198   -16.230    -0.032
O(0)            1.233e-024
   O2                    6.166e-025  6.172e-025   -24.210   -24.210     0.000

------------------------------Saturation indices-------------------------------

	Phase               SI log IAP  log KT

	Amm(g)           -1.76    0.01    1.77  Amm
	H2(g)           -30.94  -34.09   -3.15  H2
	N2(g)            -0.05   -3.31   -3.26  N2
	O2(g)           -21.25  -24.21   -2.96  O2

Using solution 8.	
Using gas phase 8.	Gas defined in simulation 1.

-----------------------------------Gas phase-----------------------------------


Total pressure:   0.9000   atmospheres
    Gas volume:  1.00e+000 liters

                                                        Moles in gas
                                            ----------------------------------
Component                log P           P     Initial       Final       Delta

Amm(g)                   -1.76  1.720e-002  4.020e-003  7.032e-004  0.000e+000
N2(g)                    -0.05  8.828e-001  3.618e-002  3.608e-002  0.000e+000

-----------------------------Solution composition------------------------------

	Elements           Molality       Moles

	Amm              1.017e+000  2.033e-001
	N                9.692e-004  1.938e-004

----------------------------Description of solution----------------------------

                                       pH  =  11.633      Charge balance
                                       pe  =   3.839      Adjusted to redox equilibrium
                        Activity of water  =   0.983
                           Ionic strength  =  4.544e-003
                       Mass of water (kg)  =  2.000e-001
                 Total alkalinity (eq/kg)  =  1.017e+000
                    Total carbon (mol/kg)  =  0.000e+000
                       Total CO2 (mol/kg)  =  0.000e+000
                      Temperature (deg C)  =  25.000
                  Electrical balance (eq)  = -3.821e-013
 Percent error, 100*(Cat-|An|)/(Cat+|An|)  =  -0.00
                               Iterations  =   2
                                  Total H  = 2.220429e+001
                                  Total O  = 1.110214e+001

----------------------------Distribution of species----------------------------

                                                   Log       Log         Log 
   Species                 Molality    Activity  Molality  Activity     Gamma

   OH-                   4.544e-003  4.223e-003    -2.343    -2.374    -0.032
   H+                    2.488e-012  2.330e-012   -11.604   -11.633    -0.029
   H2O                   5.551e+001  9.826e-001     1.744    -0.008     0.000
Amm             1.017e+000
   Amm                   1.012e+000  1.013e+000     0.005     0.006     0.000
   AmmH+                 4.544e-003  4.216e-003    -2.343    -2.375    -0.033
H(0)            1.613e-034
   H2                    8.067e-035  8.076e-035   -34.093   -34.093     0.000
N(0)            9.692e-004
   N2                    4.846e-004  4.851e-004    -3.315    -3.314     0.000
N(3)            2.734e-019
   NO2-                  2.734e-019  2.539e-019   -18.563   -18.595    -0.032
N(5)            6.340e-017
   NO3-                  6.340e-017  5.887e-017   -16.198   -16.230    -0.032
O(0)            1.233e-024
   O2                    6.166e-025  6.172e-025   -24.210   -24.210     0.000

------------------------------Saturation indices-------------------------------

	Phase               SI log IAP  log KT

	Amm(g)           -1.76    0.01    1.77  Amm
	H2(g)           -30.94  -34.09   -3.15  H2
	N2(g)            -0.05   -3.31   -3.26  N2
	O2(g)           -21.25  -24.21   -2.96  O2

Using solution 9.	
Using gas phase 9.	Gas defined in simulation 1.

-----------------------------------Gas phase-----------------------------------


Total pressure:   0.9000   atmospheres
    Gas volume:  1.00e+000 liters

                                                        Moles in gas
                                            ----------------------------------
Component                log P           P     Initial       Final       Delta

Amm(g)                   -1.76  1.720e-002  4.020e-003  7.032e-004  0.000e+000
N2(g)                    -0.05  8.828e-001  3.618e-002  3.608e-002  0.000e+000

-----------------------------Solution composition------------------------------

	Elements           Molality       Moles

	Amm              1.017e+000  2.033e-001
	N                9.692e-004  1.938e-004

----------------------------Description of solution----------------------------

                                       pH  =  11.633      Charge balance
                                       pe  =   3.839      Adjusted to redox equilibrium
                        Activity of water  =   0.983
                           Ionic strength  =  4.544e-003
                       Mass of water (kg)  =  2.000e-001
                 Total alkalinity (eq/kg)  =  1.017e+000
                    Total carbon (mol/kg)  =  0.000e+000
                       Total CO2 (mol/kg)  =  0.000e+000
                      Temperature (deg C)  =  25.000
                  Electrical balance (eq)  = -3.821e-013
 Percent error, 100*(Cat-|An|)/(Cat+|An|)  =  -0.00
                               Iterations  =   2
                                  Total H  = 2.220429e+001
                                  Total O  = 1.110214e+001

----------------------------Distribution of species----------------------------

                                                   Log       Log         Log 
   Species                 Molality    Activity  Molality  Activity     Gamma

   OH-                   4.544e-003  4.223e-003    -2.343    -2.374    -0.032
   H+                    2.488e-012  2.330e-012   -11.604   -11.633    -0.029
   H2O                   5.551e+001  9.826e-001     1.744    -0.008     0.000
Amm             1.017e+000
   Amm                   1.012e+000  1.013e+000     0.005     0.006     0.000
   AmmH+                 4.544e-003  4.216e-003    -2.343    -2.375    -0.033
H(0)            1.613e-034
   H2                    8.067e-035  8.076e-035   -34.093   -34.093     0.000
N(0)            9.692e-004
   N2                    4.846e-004  4.851e-004    -3.315    -3.314     0.000
N(3)            2.734e-019
   NO2-                  2.734e-019  2.539e-019   -18.563   -18.595    -0.032
N(5)            6.340e-017
   NO3-                  6.340e-017  5.887e-017   -16.198   -16.230    -0.032
O(0)            1.233e-024
   O2                    6.166e-025  6.172e-025   -24.210   -24.210     0.000

------------------------------Saturation indices-------------------------------

	Phase               SI log IAP  log KT

	Amm(g)           -1.76    0.01    1.77  Amm
	H2(g)           -30.94  -34.09   -3.15  H2
	N2(g)            -0.05   -3.31   -3.26  N2
	O2(g)           -21.25  -24.21   -2.96  O2

Using solution 10.	
Using gas phase 10.	Gas defined in simulation 1.

-----------------------------------Gas phase-----------------------------------


Total pressure:   0.9000   atmospheres
    Gas volume:  1.00e+000 liters

                                                        Moles in gas
                                            ----------------------------------
Component                log P           P     Initial       Final       Delta

Amm(g)                   -1.76  1.720e-002  4.020e-003  7.032e-004  0.000e+000
N2(g)                    -0.05  8.828e-001  3.618e-002  3.608e-002  0.000e+000

-----------------------------Solution composition------------------------------

	Elements           Molality       Moles

	Amm              1.017e+000  2.033e-001
	N                9.692e-004  1.938e-004

----------------------------Description of solution----------------------------

                                       pH  =  11.633      Charge balance
                                       pe  =   3.839      Adjusted to redox equilibrium
                        Activity of water  =   0.983
                           Ionic strength  =  4.544e-003
                       Mass of water (kg)  =  2.000e-001
                 Total alkalinity (eq/kg)  =  1.017e+000
                    Total carbon (mol/kg)  =  0.000e+000
                       Total CO2 (mol/kg)  =  0.000e+000
                      Temperature (deg C)  =  25.000
                  Electrical balance (eq)  = -3.821e-013
 Percent error, 100*(Cat-|An|)/(Cat+|An|)  =  -0.00
                               Iterations  =   2
                                  Total H  = 2.220429e+001
                                  Total O  = 1.110214e+001

----------------------------Distribution of species----------------------------

                                                   Log       Log         Log 
   Species                 Molality    Activity  Molality  Activity     Gamma

   OH-                   4.544e-003  4.223e-003    -2.343    -2.374    -0.032
   H+                    2.488e-012  2.330e-012   -11.604   -11.633    -0.029
   H2O                   5.551e+001  9.826e-001     1.744    -0.008     0.000
Amm             1.017e+000
   Amm                   1.012e+000  1.013e+000     0.005     0.006     0.000
   AmmH+                 4.544e-003  4.216e-003    -2.343    -2.375    -0.033
H(0)            1.613e-034
   H2                    8.067e-035  8.076e-035   -34.093   -34.093     0.000
N(0)            9.692e-004
   N2                    4.846e-004  4.851e-004    -3.315    -3.314     0.000
N(3)            2.734e-019
   NO2-                  2.734e-019  2.539e-019   -18.563   -18.595    -0.032
N(5)            6.340e-017
   NO3-                  6.340e-017  5.887e-017   -16.198   -16.230    -0.032
O(0)            1.233e-024
   O2                    6.166e-025  6.172e-025   -24.210   -24.210     0.000

------------------------------Saturation indices-------------------------------

	Phase               SI log IAP  log KT

	Amm(g)           -1.76    0.01    1.77  Amm
	H2(g)           -30.94  -34.09   -3.15  H2
	N2(g)            -0.05   -3.31   -3.26  N2
	O2(g)           -21.25  -24.21   -2.96  O2

Using solution 11.	
Using gas phase 11.	Gas defined in simulation 1.

-----------------------------------Gas phase-----------------------------------


Total pressure:   0.9000   atmospheres
    Gas volume:  1.00e+000 liters

                                                        Moles in gas
                                            ----------------------------------
Component                log P           P     Initial       Final       Delta

Amm(g)                   -1.76  1.720e-002  4.020e-003  7.032e-004  0.000e+000
N2(g)                    -0.05  8.828e-001  3.618e-002  3.608e-002  0.000e+000

-----------------------------Solution composition------------------------------

	Elements           Molality       Moles

	Amm              1.017e+000  2.033e-001
	N                9.692e-004  1.938e-004

----------------------------Description of solution----------------------------

                                       pH  =  11.633      Charge balance
                                       pe  =   3.839      Adjusted to redox equilibrium
                        Activity of water  =   0.983
                           Ionic strength  =  4.544e-003
                       Mass of water (kg)  =  2.000e-001
                 Total alkalinity (eq/kg)  =  1.017e+000
                    Total carbon (mol/kg)  =  0.000e+000
                       Total CO2 (mol/kg)  =  0.000e+000
                      Temperature (deg C)  =  25.000
                  Electrical balance (eq)  = -3.821e-013
 Percent error, 100*(Cat-|An|)/(Cat+|An|)  =  -0.00
                               Iterations  =   2
                                  Total H  = 2.220429e+001
                                  Total O  = 1.110214e+001

----------------------------Distribution of species----------------------------

                                                   Log       Log         Log 
   Species                 Molality    Activity  Molality  Activity     Gamma

   OH-                   4.544e-003  4.223e-003    -2.343    -2.374    -0.032
   H+                    2.488e-012  2.330e-012   -11.604   -11.633    -0.029
   H2O                   5.551e+001  9.826e-001     1.744    -0.008     0.000
Amm             1.017e+000
   Amm                   1.012e+000  1.013e+000     0.005     0.006     0.000
   AmmH+                 4.544e-003  4.216e-003    -2.343    -2.375    -0.033
H(0)            1.613e-034
   H2                    8.067e-035  8.076e-035   -34.093   -34.093     0.000
N(0)            9.692e-004
   N2                    4.846e-004  4.851e-004    -3.315    -3.314     0.000
N(3)            2.734e-019
   NO2-                  2.734e-019  2.539e-019   -18.563   -18.595    -0.032
N(5)            6.340e-017
   NO3-                  6.340e-017  5.887e-017   -16.198   -16.230    -0.032
O(0)            1.233e-024
   O2                    6.166e-025  6.172e-025   -24.210   -24.210     0.000

------------------------------Saturation indices-------------------------------

	Phase               SI log IAP  log KT

	Amm(g)           -1.76    0.01    1.77  Amm
	H2(g)           -30.94  -34.09   -3.15  H2
	N2(g)            -0.05   -3.31   -3.26  N2
	O2(g)           -21.25  -24.21   -2.96  O2

Using solution 12.	
Using gas phase 12.	Gas defined in simulation 1.

-----------------------------------Gas phase-----------------------------------


Total pressure:   0.9000   atmospheres
    Gas volume:  1.00e+000 liters

                                                        Moles in gas
                                            ----------------------------------
Component                log P           P     Initial       Final       Delta

Amm(g)                   -1.76  1.720e-002  4.020e-003  7.032e-004  0.000e+000
N2(g)                    -0.05  8.828e-001  3.618e-002  3.608e-002  0.000e+000

-----------------------------Solution composition------------------------------

	Elements           Molality       Moles

	Amm              1.017e+000  2.033e-001
	N                9.692e-004  1.938e-004

----------------------------Description of solution----------------------------

                                       pH  =  11.633      Charge balance
                                       pe  =   3.839      Adjusted to redox equilibrium
                        Activity of water  =   0.983
                           Ionic strength  =  4.544e-003
                       Mass of water (kg)  =  2.000e-001
                 Total alkalinity (eq/kg)  =  1.017e+000
                    Total carbon (mol/kg)  =  0.000e+000
                       Total CO2 (mol/kg)  =  0.000e+000
                      Temperature (deg C)  =  25.000
                  Electrical balance (eq)  = -3.821e-013
 Percent error, 100*(Cat-|An|)/(Cat+|An|)  =  -0.00
                               Iterations  =   2
                                  Total H  = 2.220429e+001
                                  Total O  = 1.110214e+001

----------------------------Distribution of species----------------------------

                                                   Log       Log         Log 
   Species                 Molality    Activity  Molality  Activity     Gamma

   OH-                   4.544e-003  4.223e-003    -2.343    -2.374    -0.032
   H+                    2.488e-012  2.330e-012   -11.604   -11.633    -0.029
   H2O                   5.551e+001  9.826e-001     1.744    -0.008     0.000
Amm             1.017e+000
   Amm                   1.012e+000  1.013e+000     0.005     0.006     0.000
   AmmH+                 4.544e-003  4.216e-003    -2.343    -2.375    -0.033
H(0)            1.613e-034
   H2                    8.067e-035  8.076e-035   -34.093   -34.093     0.000
N(0)            9.692e-004
   N2                    4.846e-004  4.851e-004    -3.315    -3.314     0.000
N(3)            2.734e-019
   NO2-                  2.734e-019  2.539e-019   -18.563   -18.595    -0.032
N(5)            6.340e-017
   NO3-                  6.340e-017  5.887e-017   -16.198   -16.230    -0.032
O(0)            1.233e-024
   O2                    6.166e-025  6.172e-025   -24.210   -24.210     0.000

------------------------------Saturation indices-------------------------------

	Phase               SI log IAP  log KT

	Amm(g)           -1.76    0.01    1.77  Amm
	H2(g)           -30.94  -34.09   -3.15  H2
	N2(g)            -0.05   -3.31   -3.26  N2
	O2(g)           -21.25  -24.21   -2.96  O2

Using solution 13.	
Using gas phase 13.	Gas defined in simulation 1.

-----------------------------------Gas phase-----------------------------------


Total pressure:   0.9000   atmospheres
    Gas volume:  1.00e+000 liters

                                                        Moles in gas
                                            ----------------------------------
Component                log P           P     Initial       Final       Delta

Amm(g)                   -1.76  1.720e-002  4.020e-003  7.032e-004  0.000e+000
N2(g)                    -0.05  8.828e-001  3.618e-002  3.608e-002  0.000e+000

-----------------------------Solution composition------------------------------

	Elements           Molality       Moles

	Amm              1.017e+000  2.033e-001
	N                9.692e-004  1.938e-004

----------------------------Description of solution----------------------------

                                       pH  =  11.633      Charge balance
                                       pe  =   3.839      Adjusted to redox equilibrium
                        Activity of water  =   0.983
                           Ionic strength  =  4.544e-003
                       Mass of water (kg)  =  2.000e-001
                 Total alkalinity (eq/kg)  =  1.017e+000
                    Total carbon (mol/kg)  =  0.000e+000
                       Total CO2 (mol/kg)  =  0.000e+000
                      Temperature (deg C)  =  25.000
                  Electrical balance (eq)  = -3.821e-013
 Percent error, 100*(Cat-|An|)/(Cat+|An|)  =  -0.00
                               Iterations  =   2
                                  Total H  = 2.220429e+001
                                  Total O  = 1.110214e+001

----------------------------Distribution of species----------------------------

                                                   Log       Log         Log 
   Species                 Molality    Activity  Molality  Activity     Gamma

   OH-                   4.544e-003  4.223e-003    -2.343    -2.374    -0.032
   H+                    2.488e-012  2.330e-012   -11.604   -11.633    -0.029
   H2O                   5.551e+001  9.826e-001     1.744    -0.008     0.000
Amm             1.017e+000
   Amm                   1.012e+000  1.013e+000     0.005     0.006     0.000
   AmmH+                 4.544e-003  4.216e-003    -2.343    -2.375    -0.033
H(0)            1.613e-034
   H2                    8.067e-035  8.076e-035   -34.093   -34.093     0.000
N(0)            9.692e-004
   N2                    4.846e-004  4.851e-004    -3.315    -3.314     0.000
N(3)            2.734e-019
   NO2-                  2.734e-019  2.539e-019   -18.563   -18.595    -0.032
N(5)            6.340e-017
   NO3-                  6.340e-017  5.887e-017   -16.198   -16.230    -0.032
O(0)            1.233e-024
   O2                    6.166e-025  6.172e-025   -24.210   -24.210     0.000

------------------------------Saturation indices-------------------------------

	Phase               SI log IAP  log KT

	Amm(g)           -1.76    0.01    1.77  Amm
	H2(g)           -30.94  -34.09   -3.15  H2
	N2(g)            -0.05   -3.31   -3.26  N2
	O2(g)           -21.25  -24.21   -2.96  O2

Using solution 14.	
Using gas phase 14.	Gas defined in simulation 1.

-----------------------------------Gas phase-----------------------------------


Total pressure:   0.9000   atmospheres
    Gas volume:  1.00e+000 liters

                                                        Moles in gas
                                            ----------------------------------
Component                log P           P     Initial       Final       Delta

Amm(g)                   -1.76  1.720e-002  4.020e-003  7.032e-004  0.000e+000
N2(g)                    -0.05  8.828e-001  3.618e-002  3.608e-002  0.000e+000

-----------------------------Solution composition------------------------------

	Elements           Molality       Moles

	Amm              1.017e+000  2.033e-001
	N                9.692e-004  1.938e-004

----------------------------Description of solution----------------------------

                                       pH  =  11.633      Charge balance
                                       pe  =   3.839      Adjusted to redox equilibrium
                        Activity of water  =   0.983
                           Ionic strength  =  4.544e-003
                       Mass of water (kg)  =  2.000e-001
                 Total alkalinity (eq/kg)  =  1.017e+000
                    Total carbon (mol/kg)  =  0.000e+000
                       Total CO2 (mol/kg)  =  0.000e+000
                      Temperature (deg C)  =  25.000
                  Electrical balance (eq)  = -3.821e-013
 Percent error, 100*(Cat-|An|)/(Cat+|An|)  =  -0.00
                               Iterations  =   2
                                  Total H  = 2.220429e+001
                                  Total O  = 1.110214e+001

----------------------------Distribution of species----------------------------

                                                   Log       Log         Log 
   Species                 Molality    Activity  Molality  Activity     Gamma

   OH-                   4.544e-003  4.223e-003    -2.343    -2.374    -0.032
   H+                    2.488e-012  2.330e-012   -11.604   -11.633    -0.029
   H2O                   5.551e+001  9.826e-001     1.744    -0.008     0.000
Amm             1.017e+000
   Amm                   1.012e+000  1.013e+000     0.005     0.006     0.000
   AmmH+                 4.544e-003  4.216e-003    -2.343    -2.375    -0.033
H(0)            1.613e-034
   H2                    8.067e-035  8.076e-035   -34.093   -34.093     0.000
N(0)            9.692e-004
   N2                    4.846e-004  4.851e-004    -3.315    -3.314     0.000
N(3)            2.734e-019
   NO2-                  2.734e-019  2.539e-019   -18.563   -18.595    -0.032
N(5)            6.340e-017
   NO3-                  6.340e-017  5.887e-017   -16.198   -16.230    -0.032
O(0)            1.233e-024
   O2                    6.166e-025  6.172e-025   -24.210   -24.210     0.000

------------------------------Saturation indices-------------------------------

	Phase               SI log IAP  log KT

	Amm(g)           -1.76    0.01    1.77  Amm
	H2(g)           -30.94  -34.09   -3.15  H2
	N2(g)            -0.05   -3.31   -3.26  N2
	O2(g)           -21.25  -24.21   -2.96  O2

Using solution 15.	
Using gas phase 15.	Gas defined in simulation 1.

-----------------------------------Gas phase-----------------------------------


Total pressure:   0.9000   atmospheres
    Gas volume:  1.00e+000 liters

                                                        Moles in gas
                                            ----------------------------------
Component                log P           P     Initial       Final       Delta

Amm(g)                   -1.76  1.720e-002  4.020e-003  7.032e-004  0.000e+000
N2(g)                    -0.05  8.828e-001  3.618e-002  3.608e-002  0.000e+000

-----------------------------Solution composition------------------------------

	Elements           Molality       Moles

	Amm              1.017e+000  2.033e-001
	N                9.692e-004  1.938e-004

----------------------------Description of solution----------------------------

                                       pH  =  11.633      Charge balance
                                       pe  =   3.839      Adjusted to redox equilibrium
                        Activity of water  =   0.983
                           Ionic strength  =  4.544e-003
                       Mass of water (kg)  =  2.000e-001
                 Total alkalinity (eq/kg)  =  1.017e+000
                    Total carbon (mol/kg)  =  0.000e+000
                       Total CO2 (mol/kg)  =  0.000e+000
                      Temperature (deg C)  =  25.000
                  Electrical balance (eq)  = -3.821e-013
 Percent error, 100*(Cat-|An|)/(Cat+|An|)  =  -0.00
                               Iterations  =   2
                                  Total H  = 2.220429e+001
                                  Total O  = 1.110214e+001

----------------------------Distribution of species----------------------------

                                                   Log       Log         Log 
   Species                 Molality    Activity  Molality  Activity     Gamma

   OH-                   4.544e-003  4.223e-003    -2.343    -2.374    -0.032
   H+                    2.488e-012  2.330e-012   -11.604   -11.633    -0.029
   H2O                   5.551e+001  9.826e-001     1.744    -0.008     0.000
Amm             1.017e+000
   Amm                   1.012e+000  1.013e+000     0.005     0.006     0.000
   AmmH+                 4.544e-003  4.216e-003    -2.343    -2.375    -0.033
H(0)            1.613e-034
   H2                    8.067e-035  8.076e-035   -34.093   -34.093     0.000
N(0)            9.692e-004
   N2                    4.846e-004  4.851e-004    -3.315    -3.314     0.000
N(3)            2.734e-019
   NO2-                  2.734e-019  2.539e-019   -18.563   -18.595    -0.032
N(5)            6.340e-017
   NO3-                  6.340e-017  5.887e-017   -16.198   -16.230    -0.032
O(0)            1.233e-024
   O2                    6.166e-025  6.172e-025   -24.210   -24.210     0.000

------------------------------Saturation indices-------------------------------

	Phase               SI log IAP  log KT

	Amm(g)           -1.76    0.01    1.77  Amm
	H2(g)           -30.94  -34.09   -3.15  H2
	N2(g)            -0.05   -3.31   -3.26  N2
	O2(g)           -21.25  -24.21   -2.96  O2

Using solution 16.	
Using gas phase 16.	Gas defined in simulation 1.

-----------------------------------Gas phase-----------------------------------


Total pressure:   0.9000   atmospheres
    Gas volume:  1.00e+000 liters

                                                        Moles in gas
                                            ----------------------------------
Component                log P           P     Initial       Final       Delta

Amm(g)                   -1.76  1.720e-002  4.020e-003  7.032e-004  0.000e+000
N2(g)                    -0.05  8.828e-001  3.618e-002  3.608e-002  0.000e+000

-----------------------------Solution composition------------------------------

	Elements           Molality       Moles

	Amm              1.017e+000  2.033e-001
	N                9.692e-004  1.938e-004

----------------------------Description of solution----------------------------

                                       pH  =  11.633      Charge balance
                                       pe  =   3.839      Adjusted to redox equilibrium
                        Activity of water  =   0.983
                           Ionic strength  =  4.544e-003
                       Mass of water (kg)  =  2.000e-001
                 Total alkalinity (eq/kg)  =  1.017e+000
                    Total carbon (mol/kg)  =  0.000e+000
                       Total CO2 (mol/kg)  =  0.000e+000
                      Temperature (deg C)  =  25.000
                  Electrical balance (eq)  = -3.821e-013
 Percent error, 100*(Cat-|An|)/(Cat+|An|)  =  -0.00
                               Iterations  =   2
                                  Total H  = 2.220429e+001
                                  Total O  = 1.110214e+001

----------------------------Distribution of species----------------------------

                                                   Log       Log         Log 
   Species                 Molality    Activity  Molality  Activity     Gamma

   OH-                   4.544e-003  4.223e-003    -2.343    -2.374    -0.032
   H+                    2.488e-012  2.330e-012   -11.604   -11.633    -0.029
   H2O                   5.551e+001  9.826e-001     1.744    -0.008     0.000
Amm             1.017e+000
   Amm                   1.012e+000  1.013e+000     0.005     0.006     0.000
   AmmH+                 4.544e-003  4.216e-003    -2.343    -2.375    -0.033
H(0)            1.613e-034
   H2                    8.067e-035  8.076e-035   -34.093   -34.093     0.000
N(0)            9.692e-004
   N2                    4.846e-004  4.851e-004    -3.315    -3.314     0.000
N(3)            2.734e-019
   NO2-                  2.734e-019  2.539e-019   -18.563   -18.595    -0.032
N(5)            6.340e-017
   NO3-                  6.340e-017  5.887e-017   -16.198   -16.230    -0.032
O(0)            1.233e-024
   O2                    6.166e-025  6.172e-025   -24.210   -24.210     0.000

------------------------------Saturation indices-------------------------------

	Phase               SI log IAP  log KT

	Amm(g)           -1.76    0.01    1.77  Amm
	H2(g)           -30.94  -34.09   -3.15  H2
	N2(g)            -0.05   -3.31   -3.26  N2
	O2(g)           -21.25  -24.21   -2.96  O2

Using solution 17.	
Using gas phase 17.	Gas defined in simulation 1.

-----------------------------------Gas phase-----------------------------------


Total pressure:   0.9000   atmospheres
    Gas volume:  1.00e+000 liters

                                                        Moles in gas
                                            ----------------------------------
Component                log P           P     Initial       Final       Delta

Amm(g)                   -1.76  1.720e-002  4.020e-003  7.032e-004  0.000e+000
N2(g)                    -0.05  8.828e-001  3.618e-002  3.608e-002  0.000e+000

-----------------------------Solution composition------------------------------

	Elements           Molality       Moles

	Amm              1.017e+000  2.033e-001
	N                9.692e-004  1.938e-004

----------------------------Description of solution----------------------------

                                       pH  =  11.633      Charge balance
                                       pe  =   3.839      Adjusted to redox equilibrium
                        Activity of water  =   0.983
                           Ionic strength  =  4.544e-003
                       Mass of water (kg)  =  2.000e-001
                 Total alkalinity (eq/kg)  =  1.017e+000
                    Total carbon (mol/kg)  =  0.000e+000
                       Total CO2 (mol/kg)  =  0.000e+000
                      Temperature (deg C)  =  25.000
                  Electrical balance (eq)  = -3.821e-013
 Percent error, 100*(Cat-|An|)/(Cat+|An|)  =  -0.00
                               Iterations  =   2
                                  Total H  = 2.220429e+001
                                  Total O  = 1.110214e+001

----------------------------Distribution of species----------------------------

                                                   Log       Log         Log 
   Species                 Molality    Activity  Molality  Activity     Gamma

   OH-                   4.544e-003  4.223e-003    -2.343    -2.374    -0.032
   H+                    2.488e-012  2.330e-012   -11.604   -11.633    -0.029
   H2O                   5.551e+001  9.826e-001     1.744    -0.008     0.000
Amm             1.017e+000
   Amm                   1.012e+000  1.013e+000     0.005     0.006     0.000
   AmmH+                 4.544e-003  4.216e-003    -2.343    -2.375    -0.033
H(0)            1.613e-034
   H2                    8.067e-035  8.076e-035   -34.093   -34.093     0.000
N(0)            9.692e-004
   N2                    4.846e-004  4.851e-004    -3.315    -3.314     0.000
N(3)            2.734e-019
   NO2-                  2.734e-019  2.539e-019   -18.563   -18.595    -0.032
N(5)            6.340e-017
   NO3-                  6.340e-017  5.887e-017   -16.198   -16.230    -0.032
O(0)            1.233e-024
   O2                    6.166e-025  6.172e-025   -24.210   -24.210     0.000

------------------------------Saturation indices-------------------------------

	Phase               SI log IAP  log KT

	Amm(g)           -1.76    0.01    1.77  Amm
	H2(g)           -30.94  -34.09   -3.15  H2
	N2(g)            -0.05   -3.31   -3.26  N2
	O2(g)           -21.25  -24.21   -2.96  O2

Using solution 18.	
Using gas phase 18.	Gas defined in simulation 1.

-----------------------------------Gas phase-----------------------------------


Total pressure:   0.9000   atmospheres
    Gas volume:  1.00e+000 liters

                                                        Moles in gas
                                            ----------------------------------
Component                log P           P     Initial       Final       Delta

Amm(g)                   -1.76  1.720e-002  4.020e-003  7.032e-004  0.000e+000
N2(g)                    -0.05  8.828e-001  3.618e-002  3.608e-002  0.000e+000

-----------------------------Solution composition------------------------------

	Elements           Molality       Moles

	Amm              1.017e+000  2.033e-001
	N                9.692e-004  1.938e-004

----------------------------Description of solution----------------------------

                                       pH  =  11.633      Charge balance
                                       pe  =   3.839      Adjusted to redox equilibrium
                        Activity of water  =   0.983
                           Ionic strength  =  4.544e-003
                       Mass of water (kg)  =  2.000e-001
                 Total alkalinity (eq/kg)  =  1.017e+000
                    Total carbon (mol/kg)  =  0.000e+000
                       Total CO2 (mol/kg)  =  0.000e+000
                      Temperature (deg C)  =  25.000
                  Electrical balance (eq)  = -3.821e-013
 Percent error, 100*(Cat-|An|)/(Cat+|An|)  =  -0.00
                               Iterations  =   2
                                  Total H  = 2.220429e+001
                                  Total O  = 1.110214e+001

----------------------------Distribution of species----------------------------

                                                   Log       Log         Log 
   Species                 Molality    Activity  Molality  Activity     Gamma

   OH-                   4.544e-003  4.223e-003    -2.343    -2.374    -0.032
   H+                    2.488e-012  2.330e-012   -11.604   -11.633    -0.029
   H2O                   5.551e+001  9.826e-001     1.744    -0.008     0.000
Amm             1.017e+000
   Amm                   1.012e+000  1.013e+000     0.005     0.006     0.000
   AmmH+                 4.544e-003  4.216e-003    -2.343    -2.375    -0.033
H(0)            1.613e-034
   H2                    8.067e-035  8.076e-035   -34.093   -34.093     0.000
N(0)            9.692e-004
   N2                    4.846e-004  4.851e-004    -3.315    -3.314     0.000
N(3)            2.734e-019
   NO2-                  2.734e-019  2.539e-019   -18.563   -18.595    -0.032
N(5)            6.340e-017
   NO3-                  6.340e-017  5.887e-017   -16.198   -16.230    -0.032
O(0)            1.233e-024
   O2                    6.166e-025  6.172e-025   -24.210   -24.210     0.000

------------------------------Saturation indices-------------------------------

	Phase               SI log IAP  log KT

	Amm(g)           -1.76    0.01    1.77  Amm
	H2(g)           -30.94  -34.09   -3.15  H2
	N2(g)            -0.05   -3.31   -3.26  N2
	O2(g)           -21.25  -24.21   -2.96  O2

Using solution 19.	
Using gas phase 19.	Gas defined in simulation 1.

-----------------------------------Gas phase-----------------------------------


Total pressure:   0.9000   atmospheres
    Gas volume:  1.00e+000 liters

                                                        Moles in gas
                                            ----------------------------------
Component                log P           P     Initial       Final       Delta

Amm(g)                   -1.76  1.720e-002  4.020e-003  7.032e-004  0.000e+000
N2(g)                    -0.05  8.828e-001  3.618e-002  3.608e-002  0.000e+000

-----------------------------Solution composition------------------------------

	Elements           Molality       Moles

	Amm              1.017e+000  2.033e-001
	N                9.692e-004  1.938e-004

----------------------------Description of solution----------------------------

                                       pH  =  11.633      Charge balance
                                       pe  =   3.839      Adjusted to redox equilibrium
                        Activity of water  =   0.983
                           Ionic strength  =  4.544e-003
                       Mass of water (kg)  =  2.000e-001
                 Total alkalinity (eq/kg)  =  1.017e+000
                    Total carbon (mol/kg)  =  0.000e+000
                       Total CO2 (mol/kg)  =  0.000e+000
                      Temperature (deg C)  =  25.000
                  Electrical balance (eq)  = -3.821e-013
 Percent error, 100*(Cat-|An|)/(Cat+|An|)  =  -0.00
                               Iterations  =   2
                                  Total H  = 2.220429e+001
                                  Total O  = 1.110214e+001

----------------------------Distribution of species----------------------------

                                                   Log       Log         Log 
   Species                 Molality    Activity  Molality  Activity     Gamma

   OH-                   4.544e-003  4.223e-003    -2.343    -2.374    -0.032
   H+                    2.488e-012  2.330e-012   -11.604   -11.633    -0.029
   H2O                   5.551e+001  9.826e-001     1.744    -0.008     0.000
Amm             1.017e+000
   Amm                   1.012e+000  1.013e+000     0.005     0.006     0.000
   AmmH+                 4.544e-003  4.216e-003    -2.343    -2.375    -0.033
H(0)            1.613e-034
   H2                    8.067e-035  8.076e-035   -34.093   -34.093     0.000
N(0)            9.692e-004
   N2                    4.846e-004  4.851e-004    -3.315    -3.314     0.000
N(3)            2.734e-019
   NO2-                  2.734e-019  2.539e-019   -18.563   -18.595    -0.032
N(5)            6.340e-017
   NO3-                  6.340e-017  5.887e-017   -16.198   -16.230    -0.032
O(0)            1.233e-024
   O2                    6.166e-025  6.172e-025   -24.210   -24.210     0.000

------------------------------Saturation indices-------------------------------

	Phase               SI log IAP  log KT

	Amm(g)           -1.76    0.01    1.77  Amm
	H2(g)           -30.94  -34.09   -3.15  H2
	N2(g)            -0.05   -3.31   -3.26  N2
	O2(g)           -21.25  -24.21   -2.96  O2

Using solution 20.	
Using gas phase 20.	Gas defined in simulation 1.

-----------------------------------Gas phase-----------------------------------


Total pressure:   0.9000   atmospheres
    Gas volume:  1.00e+000 liters

                                                        Moles in gas
                                            ----------------------------------
Component                log P           P     Initial       Final       Delta

Amm(g)                   -1.76  1.720e-002  4.020e-003  7.032e-004  0.000e+000
N2(g)                    -0.05  8.828e-001  3.618e-002  3.608e-002  0.000e+000

-----------------------------Solution composition------------------------------

	Elements           Molality       Moles

	Amm              1.017e+000  2.033e-001
	N                9.692e-004  1.938e-004

----------------------------Description of solution----------------------------

                                       pH  =  11.633      Charge balance
                                       pe  =   3.839      Adjusted to redox equilibrium
                        Activity of water  =   0.983
                           Ionic strength  =  4.544e-003
                       Mass of water (kg)  =  2.000e-001
                 Total alkalinity (eq/kg)  =  1.017e+000
                    Total carbon (mol/kg)  =  0.000e+000
                       Total CO2 (mol/kg)  =  0.000e+000
                      Temperature (deg C)  =  25.000
                  Electrical balance (eq)  = -3.821e-013
 Percent error, 100*(Cat-|An|)/(Cat+|An|)  =  -0.00
                               Iterations  =   2
                                  Total H  = 2.220429e+001
                                  Total O  = 1.110214e+001

----------------------------Distribution of species----------------------------

                                                   Log       Log         Log 
   Species                 Molality    Activity  Molality  Activity     Gamma

   OH-                   4.544e-003  4.223e-003    -2.343    -2.374    -0.032
   H+                    2.488e-012  2.330e-012   -11.604   -11.633    -0.029
   H2O                   5.551e+001  9.826e-001     1.744    -0.008     0.000
Amm             1.017e+000
   Amm                   1.012e+000  1.013e+000     0.005     0.006     0.000
   AmmH+                 4.544e-003  4.216e-003    -2.343    -2.375    -0.033
H(0)            1.613e-034
   H2                    8.067e-035  8.076e-035   -34.093   -34.093     0.000
N(0)            9.692e-004
   N2                    4.846e-004  4.851e-004    -3.315    -3.314     0.000
N(3)            2.734e-019
   NO2-                  2.734e-019  2.539e-019   -18.563   -18.595    -0.032
N(5)            6.340e-017
   NO3-                  6.340e-017  5.887e-017   -16.198   -16.230    -0.032
O(0)            1.233e-024
   O2                    6.166e-025  6.172e-025   -24.210   -24.210     0.000

------------------------------Saturation indices-------------------------------

	Phase               SI log IAP  log KT

	Amm(g)           -1.76    0.01    1.77  Amm
	H2(g)           -30.94  -34.09   -3.15  H2
	N2(g)            -0.05   -3.31   -3.26  N2
	O2(g)           -21.25  -24.21   -2.96  O2

Using solution 21.	
Using gas phase 21.	Gas defined in simulation 1.

-----------------------------------Gas phase-----------------------------------


Total pressure:   0.9000   atmospheres
    Gas volume:  1.00e+000 liters

                                                        Moles in gas
                                            ----------------------------------
Component                log P           P     Initial       Final       Delta

Amm(g)                   -1.76  1.720e-002  4.020e-003  7.032e-004  0.000e+000
N2(g)                    -0.05  8.828e-001  3.618e-002  3.608e-002  0.000e+000

-----------------------------Solution composition------------------------------

	Elements           Molality       Moles

	Amm              1.017e+000  2.033e-001
	N                9.692e-004  1.938e-004

----------------------------Description of solution----------------------------

                                       pH  =  11.633      Charge balance
                                       pe  =   3.839      Adjusted to redox equilibrium
                        Activity of water  =   0.983
                           Ionic strength  =  4.544e-003
                       Mass of water (kg)  =  2.000e-001
                 Total alkalinity (eq/kg)  =  1.017e+000
                    Total carbon (mol/kg)  =  0.000e+000
                       Total CO2 (mol/kg)  =  0.000e+000
                      Temperature (deg C)  =  25.000
                  Electrical balance (eq)  = -3.821e-013
 Percent error, 100*(Cat-|An|)/(Cat+|An|)  =  -0.00
                               Iterations  =   2
                                  Total H  = 2.220429e+001
                                  Total O  = 1.110214e+001

----------------------------Distribution of species----------------------------

                                                   Log       Log         Log 
   Species                 Molality    Activity  Molality  Activity     Gamma

   OH-                   4.544e-003  4.223e-003    -2.343    -2.374    -0.032
   H+                    2.488e-012  2.330e-012   -11.604   -11.633    -0.029
   H2O                   5.551e+001  9.826e-001     1.744    -0.008     0.000
Amm             1.017e+000
   Amm                   1.012e+000  1.013e+000     0.005     0.006     0.000
   AmmH+                 4.544e-003  4.216e-003    -2.343    -2.375    -0.033
H(0)            1.613e-034
   H2                    8.067e-035  8.076e-035   -34.093   -34.093     0.000
N(0)            9.692e-004
   N2                    4.846e-004  4.851e-004    -3.315    -3.314     0.000
N(3)            2.734e-019
   NO2-                  2.734e-019  2.539e-019   -18.563   -18.595    -0.032
N(5)            6.340e-017
   NO3-                  6.340e-017  5.887e-017   -16.198   -16.230    -0.032
O(0)            1.233e-024
   O2                    6.166e-025  6.172e-025   -24.210   -24.210     0.000

------------------------------Saturation indices-------------------------------

	Phase               SI log IAP  log KT

	Amm(g)           -1.76    0.01    1.77  Amm
	H2(g)           -30.94  -34.09   -3.15  H2
	N2(g)            -0.05   -3.31   -3.26  N2
	O2(g)           -21.25  -24.21   -2.96  O2

Using solution 22.	
Using gas phase 22.	Gas defined in simulation 1.

-----------------------------------Gas phase-----------------------------------


Total pressure:   0.9000   atmospheres
    Gas volume:  1.00e+000 liters

                                                        Moles in gas
                                            ----------------------------------
Component                log P           P     Initial       Final       Delta

Amm(g)                   -1.76  1.720e-002  4.020e-003  7.032e-004  0.000e+000
N2(g)                    -0.05  8.828e-001  3.618e-002  3.608e-002  0.000e+000

-----------------------------Solution composition------------------------------

	Elements           Molality       Moles

	Amm              1.017e+000  2.033e-001
	N                9.692e-004  1.938e-004

----------------------------Description of solution----------------------------

                                       pH  =  11.633      Charge balance
                                       pe  =   3.839      Adjusted to redox equilibrium
                        Activity of water  =   0.983
                           Ionic strength  =  4.544e-003
                       Mass of water (kg)  =  2.000e-001
                 Total alkalinity (eq/kg)  =  1.017e+000
                    Total carbon (mol/kg)  =  0.000e+000
                       Total CO2 (mol/kg)  =  0.000e+000
                      Temperature (deg C)  =  25.000
[...]
	N                9.692e-004  1.938e-004

----------------------------Description of solution----------------------------

                                       pH  =  11.633      Charge balance
                                       pe  =   3.839      Adjusted to redox equilibrium
                        Activity of water  =   0.983
                           Ionic strength  =  4.544e-003
                       Mass of water (kg)  =  2.000e-001
                 Total alkalinity (eq/kg)  =  1.017e+000
                    Total carbon (mol/kg)  =  0.000e+000
                       Total CO2 (mol/kg)  =  0.000e+000
                      Temperature (deg C)  =  25.000
                  Electrical balance (eq)  = -3.926e-013
 Percent error, 100*(Cat-|An|)/(Cat+|An|)  =  -0.00
                               Iterations  =   0
                                  Total H  = 2.220429e+001
                                  Total O  = 1.110214e+001

----------------------------Distribution of species----------------------------

                                                   Log       Log         Log 
   Species                 Molality    Activity  Molality  Activity     Gamma

   OH-                   4.544e-003  4.223e-003    -2.343    -2.374    -0.032
   H+                    2.488e-012  2.330e-012   -11.604   -11.633    -0.029
   H2O                   5.551e+001  9.826e-001     1.744    -0.008     0.000
Amm             1.017e+000
   Amm                   1.012e+000  1.013e+000     0.005     0.006     0.000
   AmmH+                 4.544e-003  4.216e-003    -2.343    -2.375    -0.033
H(0)            1.613e-034
   H2                    8.067e-035  8.076e-035   -34.093   -34.093     0.000
N(0)            9.692e-004
   N2                    4.846e-004  4.851e-004    -3.315    -3.314     0.000
N(3)            2.734e-019
   NO2-                  2.734e-019  2.539e-019   -18.563   -18.595    -0.032
N(5)            6.340e-017
   NO3-                  6.340e-017  5.887e-017   -16.198   -16.230    -0.032
O(0)            1.233e-024
   O2                    6.166e-025  6.172e-025   -24.210   -24.210     0.000

------------------------------Saturation indices-------------------------------

	Phase               SI log IAP  log KT

	Amm(g)           -1.76    0.01    1.77  Amm
	H2(g)           -30.94  -34.09   -3.15  H2
	N2(g)            -0.05   -3.31   -3.26  N2
	O2(g)           -21.25  -24.21   -2.96  O2

Using mix 96.	 
Using gas phase 96.	Gas phase after simulation 1.

Mixture 96.	 

	 3.000e-009 Solution 95	Solution after simulation 1.                           
	 3.000e-009 Solution 97	Solution after simulation 1.                           
	 1.000e+000 Solution 96	Solution after simulation 1.                           

-----------------------------------Gas phase-----------------------------------


Total pressure:   0.9000   atmospheres
    Gas volume:  1.00e+000 liters

                                                        Moles in gas
                                            ----------------------------------
Component                log P           P     Initial       Final       Delta

Amm(g)                   -1.76  1.720e-002  7.032e-004  7.032e-004  0.000e+000
N2(g)                    -0.05  8.828e-001  3.608e-002  3.608e-002  0.000e+000

-----------------------------Solution composition------------------------------

	Elements           Molality       Moles

	Amm              1.017e+000  2.033e-001
	N                9.692e-004  1.938e-004

----------------------------Description of solution----------------------------

                                       pH  =  11.633      Charge balance
                                       pe  =   3.839      Adjusted to redox equilibrium
                        Activity of water  =   0.983
                           Ionic strength  =  4.544e-003
                       Mass of water (kg)  =  2.000e-001
                 Total alkalinity (eq/kg)  =  1.017e+000
                    Total carbon (mol/kg)  =  0.000e+000
                       Total CO2 (mol/kg)  =  0.000e+000
                      Temperature (deg C)  =  25.000
                  Electrical balance (eq)  = -3.926e-013
 Percent error, 100*(Cat-|An|)/(Cat+|An|)  =  -0.00
                               Iterations  =   0
                                  Total H  = 2.220429e+001
                                  Total O  = 1.110214e+001

----------------------------Distribution of species----------------------------

                                                   Log       Log         Log 
   Species                 Molality    Activity  Molality  Activity     Gamma

   OH-                   4.544e-003  4.223e-003    -2.343    -2.374    -0.032
   H+                    2.488e-012  2.330e-012   -11.604   -11.633    -0.029
   H2O                   5.551e+001  9.826e-001     1.744    -0.008     0.000
Amm             1.017e+000
   Amm                   1.012e+000  1.013e+000     0.005     0.006     0.000
   AmmH+                 4.544e-003  4.216e-003    -2.343    -2.375    -0.033
H(0)            1.613e-034
   H2                    8.067e-035  8.076e-035   -34.093   -34.093     0.000
N(0)            9.692e-004
   N2                    4.846e-004  4.851e-004    -3.315    -3.314     0.000
N(3)            2.734e-019
   NO2-                  2.734e-019  2.539e-019   -18.563   -18.595    -0.032
N(5)            6.340e-017
   NO3-                  6.340e-017  5.887e-017   -16.198   -16.230    -0.032
O(0)            1.233e-024
   O2                    6.166e-025  6.172e-025   -24.210   -24.210     0.000

------------------------------Saturation indices-------------------------------

	Phase               SI log IAP  log KT

	Amm(g)           -1.76    0.01    1.77  Amm
	H2(g)           -30.94  -34.09   -3.15  H2
	N2(g)            -0.05   -3.31   -3.26  N2
	O2(g)           -21.25  -24.21   -2.96  O2

Using mix 97.	 
Using gas phase 97.	Gas phase after simulation 1.

Mixture 97.	 

	 3.000e-009 Solution 96	Solution after simulation 1.                           
	 3.000e-009 Solution 98	Solution after simulation 1.                           
	 1.000e+000 Solution 97	Solution after simulation 1.                           

-----------------------------------Gas phase-----------------------------------


Total pressure:   0.9000   atmospheres
    Gas volume:  1.00e+000 liters

                                                        Moles in gas
                                            ----------------------------------
Component                log P           P     Initial       Final       Delta

Amm(g)                   -1.76  1.720e-002  7.032e-004  7.032e-004  0.000e+000
N2(g)                    -0.05  8.828e-001  3.608e-002  3.608e-002  0.000e+000

-----------------------------Solution composition------------------------------

	Elements           Molality       Moles

	Amm              1.017e+000  2.033e-001
	N                9.692e-004  1.938e-004

----------------------------Description of solution----------------------------

                                       pH  =  11.633      Charge balance
                                       pe  =   3.839      Adjusted to redox equilibrium
                        Activity of water  =   0.983
                           Ionic strength  =  4.544e-003
                       Mass of water (kg)  =  2.000e-001
                 Total alkalinity (eq/kg)  =  1.017e+000
                    Total carbon (mol/kg)  =  0.000e+000
                       Total CO2 (mol/kg)  =  0.000e+000
                      Temperature (deg C)  =  25.000
                  Electrical balance (eq)  = -3.926e-013
 Percent error, 100*(Cat-|An|)/(Cat+|An|)  =  -0.00
                               Iterations  =   0
                                  Total H  = 2.220429e+001
                                  Total O  = 1.110214e+001

----------------------------Distribution of species----------------------------

                                                   Log       Log         Log 
   Species                 Molality    Activity  Molality  Activity     Gamma

   OH-                   4.544e-003  4.223e-003    -2.343    -2.374    -0.032
   H+                    2.488e-012  2.330e-012   -11.604   -11.633    -0.029
   H2O                   5.551e+001  9.826e-001     1.744    -0.008     0.000
Amm             1.017e+000
   Amm                   1.012e+000  1.013e+000     0.005     0.006     0.000
   AmmH+                 4.544e-003  4.216e-003    -2.343    -2.375    -0.033
H(0)            1.613e-034
   H2                    8.067e-035  8.076e-035   -34.093   -34.093     0.000
N(0)            9.692e-004
   N2                    4.846e-004  4.851e-004    -3.315    -3.314     0.000
N(3)            2.734e-019
   NO2-                  2.734e-019  2.539e-019   -18.563   -18.595    -0.032
N(5)            6.340e-017
   NO3-                  6.340e-017  5.887e-017   -16.198   -16.230    -0.032
O(0)            1.233e-024
   O2                    6.166e-025  6.172e-025   -24.210   -24.210     0.000

------------------------------Saturation indices-------------------------------

	Phase               SI log IAP  log KT

	Amm(g)           -1.76    0.01    1.77  Amm
	H2(g)           -30.94  -34.09   -3.15  H2
	N2(g)            -0.05   -3.31   -3.26  N2
	O2(g)           -21.25  -24.21   -2.96  O2

Using mix 98.	 
Using gas phase 98.	Gas phase after simulation 1.

Mixture 98.	 

	 3.000e-009 Solution 97	Solution after simulation 1.                           
	 3.000e-009 Solution 99	Solution after simulation 1.                           
	 1.000e+000 Solution 98	Solution after simulation 1.                           

-----------------------------------Gas phase-----------------------------------


Total pressure:   0.9000   atmospheres
    Gas volume:  1.00e+000 liters

                                                        Moles in gas
                                            ----------------------------------
Component                log P           P     Initial       Final       Delta

Amm(g)                   -1.76  1.720e-002  7.032e-004  7.032e-004  0.000e+000
N2(g)                    -0.05  8.828e-001  3.608e-002  3.608e-002  0.000e+000

-----------------------------Solution composition------------------------------

	Elements           Molality       Moles

	Amm              1.017e+000  2.033e-001
	N                9.692e-004  1.938e-004

----------------------------Description of solution----------------------------

                                       pH  =  11.633      Charge balance
                                       pe  =   3.839      Adjusted to redox equilibrium
                        Activity of water  =   0.983
                           Ionic strength  =  4.544e-003
                       Mass of water (kg)  =  2.000e-001
                 Total alkalinity (eq/kg)  =  1.017e+000
                    Total carbon (mol/kg)  =  0.000e+000
                       Total CO2 (mol/kg)  =  0.000e+000
                      Temperature (deg C)  =  25.000
                  Electrical balance (eq)  = -3.926e-013
 Percent error, 100*(Cat-|An|)/(Cat+|An|)  =  -0.00
                               Iterations  =   0
                                  Total H  = 2.220429e+001
                                  Total O  = 1.110214e+001

----------------------------Distribution of species----------------------------

                                                   Log       Log         Log 
   Species                 Molality    Activity  Molality  Activity     Gamma

   OH-                   4.544e-003  4.223e-003    -2.343    -2.374    -0.032
   H+                    2.488e-012  2.330e-012   -11.604   -11.633    -0.029
   H2O                   5.551e+001  9.826e-001     1.744    -0.008     0.000
Amm             1.017e+000
   Amm                   1.012e+000  1.013e+000     0.005     0.006     0.000
   AmmH+                 4.544e-003  4.216e-003    -2.343    -2.375    -0.033
H(0)            1.613e-034
   H2                    8.067e-035  8.076e-035   -34.093   -34.093     0.000
N(0)            9.692e-004
   N2                    4.846e-004  4.851e-004    -3.315    -3.314     0.000
N(3)            2.734e-019
   NO2-                  2.734e-019  2.539e-019   -18.563   -18.595    -0.032
N(5)            6.340e-017
   NO3-                  6.340e-017  5.887e-017   -16.198   -16.230    -0.032
O(0)            1.233e-024
   O2                    6.166e-025  6.172e-025   -24.210   -24.210     0.000

------------------------------Saturation indices-------------------------------

	Phase               SI log IAP  log KT

	Amm(g)           -1.76    0.01    1.77  Amm
	H2(g)           -30.94  -34.09   -3.15  H2
	N2(g)            -0.05   -3.31   -3.26  N2
	O2(g)           -21.25  -24.21   -2.96  O2

Using mix 99.	 
Using gas phase 99.	Gas phase after simulation 1.

Mixture 99.	 

	 3.000e-009 Solution 98	Solution after simulation 1.                           
	 3.000e-009 Solution 100	Solution after simulation 1.                           
	 1.000e+000 Solution 99	Solution after simulation 1.                           

-----------------------------------Gas phase-----------------------------------


Total pressure:   0.9000   atmospheres
    Gas volume:  1.00e+000 liters

                                                        Moles in gas
                                            ----------------------------------
Component                log P           P     Initial       Final       Delta

Amm(g)                   -1.76  1.720e-002  7.032e-004  7.032e-004  0.000e+000
N2(g)                    -0.05  8.828e-001  3.608e-002  3.608e-002  0.000e+000

-----------------------------Solution composition------------------------------

	Elements           Molality       Moles

	Amm              1.017e+000  2.033e-001
	N                9.692e-004  1.938e-004

----------------------------Description of solution----------------------------

                                       pH  =  11.633      Charge balance
                                       pe  =   3.839      Adjusted to redox equilibrium
                        Activity of water  =   0.983
                           Ionic strength  =  4.544e-003
                       Mass of water (kg)  =  2.000e-001
                 Total alkalinity (eq/kg)  =  1.017e+000
                    Total carbon (mol/kg)  =  0.000e+000
                       Total CO2 (mol/kg)  =  0.000e+000
                      Temperature (deg C)  =  25.000
                  Electrical balance (eq)  = -3.923e-013
 Percent error, 100*(Cat-|An|)/(Cat+|An|)  =  -0.00
                               Iterations  =   0
                                  Total H  = 2.220429e+001
                                  Total O  = 1.110214e+001

----------------------------Distribution of species----------------------------

                                                   Log       Log         Log 
   Species                 Molality    Activity  Molality  Activity     Gamma

   OH-                   4.544e-003  4.223e-003    -2.343    -2.374    -0.032
   H+                    2.488e-012  2.330e-012   -11.604   -11.633    -0.029
   H2O                   5.551e+001  9.826e-001     1.744    -0.008     0.000
Amm             1.017e+000
   Amm                   1.012e+000  1.013e+000     0.005     0.006     0.000
   AmmH+                 4.544e-003  4.216e-003    -2.343    -2.375    -0.033
H(0)            1.613e-034
   H2                    8.067e-035  8.076e-035   -34.093   -34.093     0.000
N(0)            9.692e-004
   N2                    4.846e-004  4.851e-004    -3.315    -3.314     0.000
N(3)            2.734e-019
   NO2-                  2.734e-019  2.539e-019   -18.563   -18.595    -0.032
N(5)            6.340e-017
   NO3-                  6.340e-017  5.887e-017   -16.198   -16.230    -0.032
O(0)            1.233e-024
   O2                    6.166e-025  6.172e-025   -24.210   -24.210     0.000

------------------------------Saturation indices-------------------------------

	Phase               SI log IAP  log KT

	Amm(g)           -1.76    0.01    1.77  Amm
	H2(g)           -30.94  -34.09   -3.15  H2
	N2(g)            -0.05   -3.31   -3.26  N2
	O2(g)           -21.25  -24.21   -2.96  O2

Using mix 100.	 
Using gas phase 100.	Gas phase after simulation 1.

Mixture 100.	 

	 3.000e-009 Solution 99	Solution after simulation 1.                           
	 6.000e-009 Solution 101	Solution after simulation 1.                           
	 1.000e+000 Solution 100	Solution after simulation 1.                           

-----------------------------------Gas phase-----------------------------------


Total pressure:   0.9000   atmospheres
    Gas volume:  1.00e+000 liters

                                                        Moles in gas
                                            ----------------------------------
Component                log P           P     Initial       Final       Delta

Amm(g)                   -1.76  1.720e-002  7.032e-004  7.032e-004  0.000e+000
N2(g)                    -0.05  8.828e-001  3.608e-002  3.608e-002  0.000e+000

-----------------------------Solution composition------------------------------

	Elements           Molality       Moles

	Amm              1.017e+000  2.033e-001
	N                9.692e-004  1.938e-004

----------------------------Description of solution----------------------------

                                       pH  =  11.633      Charge balance
                                       pe  =   4.705      Adjusted to redox equilibrium
                        Activity of water  =   0.983
                           Ionic strength  =  4.544e-003
                       Mass of water (kg)  =  2.000e-001
                 Total alkalinity (eq/kg)  =  1.017e+000
                    Total carbon (mol/kg)  =  0.000e+000
                       Total CO2 (mol/kg)  =  0.000e+000
                      Temperature (deg C)  =  25.000
                  Electrical balance (eq)  =  5.183e-012
 Percent error, 100*(Cat-|An|)/(Cat+|An|)  =   0.00
                               Iterations  =   1
                                  Total H  = 2.220429e+001
                                  Total O  = 1.110214e+001

----------------------------Distribution of species----------------------------

                                                   Log       Log         Log 
   Species                 Molality    Activity  Molality  Activity     Gamma

   OH-                   4.544e-003  4.223e-003    -2.343    -2.374    -0.032
   H+                    2.488e-012  2.330e-012   -11.604   -11.633    -0.029
   H2O                   5.551e+001  9.826e-001     1.744    -0.008     0.000
Amm             1.017e+000
   Amm                   1.012e+000  1.013e+000     0.005     0.006     0.000
   AmmH+                 4.544e-003  4.216e-003    -2.343    -2.375    -0.033
H(0)            2.988e-036
   H2                    1.494e-036  1.495e-036   -35.826   -35.825     0.000
N(0)            9.692e-004
   N2                    4.846e-004  4.851e-004    -3.315    -3.314     0.000
N(3)            1.085e-016
   NO2-                  1.085e-016  1.008e-016   -15.964   -15.997    -0.032
N(5)            1.359e-012
   NO3-                  1.359e-012  1.262e-012   -11.867   -11.899    -0.032
O(0)            3.597e-021
   O2                    1.798e-021  1.800e-021   -20.745   -20.745     0.000

------------------------------Saturation indices-------------------------------

	Phase               SI log IAP  log KT

	Amm(g)           -1.76    0.01    1.77  Amm
	H2(g)           -32.68  -35.83   -3.15  H2
	N2(g)            -0.05   -3.31   -3.26  N2
	O2(g)           -17.78  -20.74   -2.96  O2

------------------
End of simulation.
------------------

------------------------------------
Reading input data for simulation 2.
------------------------------------

-----------
End of run.
-----------

