   Input file: eco
  Output file: eco.out
Database file: eco.dat

------------------
Reading data base.
------------------

	SOLUTION_MASTER_SPECIES
	SOLUTION_SPECIES
	SURFACE_MASTER_SPECIES
	SURFACE_SPECIES
------------------------------------
Reading input data for simulation 1.
------------------------------------

	DATABASE eco.dat
	PHASES
	Fix_pH
		H+ = H+
		log_k 0
	END
------------------
End of simulation.
------------------

------------------------------------
Reading input data for simulation 2.
------------------------------------

	SOLUTION 1
		 units mmol/kgw
		 pH	7 charge
		 Na	10
		 Cl	10
		 As	1 umol/kgw
		 P	1 umol/kgw
	END
-------------------------------------------
Beginning of initial solution calculations.
-------------------------------------------

Initial solution 1.	

-----------------------------Solution composition------------------------------

	Elements           Molality       Moles

	As               1.000e-006  1.000e-006
	Cl               1.000e-002  1.000e-002
	Na               1.000e-002  1.000e-002
	P                1.000e-006  1.000e-006

----------------------------Description of solution----------------------------

                                       pH  =   5.711      Charge balance
                                       pe  =   4.000    
                        Activity of water  =   1.000
                           Ionic strength  =  9.922e-003
                       Mass of water (kg)  =  1.000e+000
                 Total alkalinity (eq/kg)  = -2.000e-006
                    Total carbon (mol/kg)  =  0.000e+000
                       Total CO2 (mol/kg)  =  0.000e+000
                      Temperature (deg C)  =  25.000
                  Electrical balance (eq)  = -8.456e-018
 Percent error, 100*(Cat-|An|)/(Cat+|An|)  =  -0.00
                               Iterations  =   7
                                  Total H  = 1.110124e+002
                                  Total O  = 5.550622e+001

----------------------------Distribution of species----------------------------

                                                   Log       Log         Log 
   Species                 Molality    Activity  Molality  Activity     Gamma

   H+                    2.156e-006  1.946e-006    -5.666    -5.711    -0.045
   OH-                   5.694e-009  5.138e-009    -8.245    -8.289    -0.045
   H2O                   5.551e+001  9.997e-001     1.744    -0.000     0.000
As              1.000e-006
   H2AsO4-               8.909e-007  8.039e-007    -6.050    -6.095    -0.045
   HAsO4-2               1.088e-007  7.213e-008    -6.963    -7.142    -0.178
   H3AsO4                2.731e-010  2.737e-010    -9.564    -9.563     0.001
   AsO4-3                2.369e-013  9.398e-014   -12.625   -13.027    -0.402
Cl              1.000e-002
   Cl-                   9.920e-003  8.951e-003    -2.003    -2.048    -0.045
   NaCl                  7.995e-005  8.013e-005    -4.097    -4.096     0.001
H(0)            5.348e-023
   H2                    2.674e-023  2.680e-023   -22.573   -22.572     0.001
Na              1.000e-002
   Na+                   9.920e-003  8.951e-003    -2.003    -2.048    -0.045
   NaCl                  7.995e-005  8.013e-005    -4.097    -4.096     0.001
   NaOH                  2.895e-011  2.902e-011   -10.538   -10.537     0.001
O(0)            0.000e+000
   O2                    0.000e+000  0.000e+000   -47.238   -47.237     0.001
P               1.000e-006
   H2PO4-                9.575e-007  8.640e-007    -6.019    -6.063    -0.045
   HPO4-2                4.226e-008  2.802e-008    -7.374    -7.553    -0.178
   H3PO4                 2.369e-010  2.375e-010    -9.625    -9.624     0.001
   (H2PO4)2-2            5.029e-013  3.335e-013   -12.298   -12.477    -0.178
   PO4-3                 1.622e-014  6.432e-015   -13.790   -14.192    -0.402
   H2P2O7-2              2.196e-018  1.456e-018   -17.658   -17.837    -0.178
   HP2O7-3               3.764e-019  1.493e-019   -18.424   -18.826    -0.402
   H3P2O7-               5.983e-022  5.398e-022   -21.223   -21.268    -0.045
   P2O7-4                1.545e-022  2.986e-023   -21.811   -22.525    -0.714
   H4P2O7                6.612e-027  6.628e-027   -26.180   -26.179     0.001

------------------------------Saturation indices-------------------------------

	Phase               SI log IAP  log KT

	Fix_pH           -5.71   -5.71    0.00  H+

------------------
End of simulation.
------------------

------------------------------------
Reading input data for simulation 3.
------------------------------------

	SURFACE
		Goe_uniOHH0.5 .000552 96.387 1  # 1.1   5
			  capacitances	  1.1 5
		Goe_triOH0.5  .000432
		cd_music
	END
------------------
End of simulation.
------------------

------------------------------------
Reading input data for simulation 4.
------------------------------------

	USER_PRINT
	10 PRINT  "Charge, plane 0, eq                   ", edl("charge", "Goe")
	20 PRINT  "Charge, plane 1, eq                   ", edl("charge1", "Goe")
	30 PRINT  "Charge, plane 2, eq                   ", edl("charge2", "Goe")
	110 PRINT "Sigma, plane 0, C/m^2                 ", edl("sigma", "Goe")
	120 PRINT "Sigma, plane 1, C/m^2                 ", edl("sigma1", "Goe")
	130 PRINT "Sigma, plane 2, C/m^2                 ", edl("sigma2", "Goe")
	210 PRINT "Psi, plane 0, V                       ", edl("psi", "Goe")
	220 PRINT "Psi, plane 1, V                       ", edl("psi1", "Goe")
	230 PRINT "Psi, plane 2, V                       ", edl("psi2", "Goe")
	USE solution 1
	USE surface 1
	EQUILIBRIUM_PHASES
	Fix_pH -10 NaOH 10
	END
-----------------------------------------
Beginning of batch-reaction calculations.
-----------------------------------------

Reaction step 1.

Using solution 1.	
Using surface 1.	
Using pure phase assemblage 1.	

----------------------------------User print-----------------------------------

Charge, plane 0, eq                    -7.0451e-006 
Charge, plane 1, eq                    -4.4407e-006 
Charge, plane 2, eq                     1.9717e-006 
Sigma, plane 0, C/m^2                  -7.0529e-003 
Sigma, plane 1, C/m^2                  -4.4456e-003 
Sigma, plane 2, C/m^2                   1.9739e-003 
Psi, plane 0, V                        -4.6744e-002 
Psi, plane 1, V                        -4.0332e-002 
Psi, plane 2, V                        -3.8032e-002 

-------------------------------Phase assemblage--------------------------------

                                                      Moles in assemblage
Phase                  SI log IAP  log KT      Initial       Final       Delta

Fix_pH             -10.00  -10.00    0.00
	 NaOH               is reactant     1.000e+001  1.000e+001 -1.229e-004

------------------------------Surface composition------------------------------

Goe           
	-7.045e-006  Surface charge, plane 0, eq
	-4.441e-006  Surface charge, plane 1, eq
	 1.972e-006  Surface charge, plane 2, eq
	-9.514e-006  Sum of surface charge, all planes, eq

	-7.053e-003  sigma, plane 0, C/m**2
	-4.446e-003  sigma, plane 1, C/m**2
	 1.974e-003  sigma, plane 2, C/m**2
	 9.525e-003  sigma, diffuse layer, C/m**2

	-4.674e-002  psi, plane 0, V
	-4.033e-002  psi, plane 1, V
	-3.803e-002  psi, plane 2, V

	 6.168e+000  exp(-F*psi/RT), plane 0
	 4.806e+000  exp(-F*psi/RT), plane 1
	 4.395e+000  exp(-F*psi/RT), plane 2

	 1.100e+000  capacitance 0-1, F/m^2
	 5.000e+000  capacitance 1-2, F/m^2
	 9.639e+001  specific area, m^2/g
	 9.639e+001  m^2 for  1.000e+000 g


Goe_tri       
	 4.320e-004  moles
	                                        Mole                     Log
	Species                    Moles    Fraction    Molality    Molality

	Goe_triO-0.5          2.180e-004       0.505  2.180e-004      -3.662
	Goe_triOH+0.5         2.131e-004       0.493  2.131e-004      -3.671
	Goe_triONa+0.5        8.675e-007       0.002  8.675e-007      -6.062

Goe_uni       
	 5.520e-004  moles
	                                        Mole                     Log
	Species                    Moles    Fraction    Molality    Molality

	Goe_uniOH-0.5         2.775e-004       0.503  2.775e-004      -3.557
	Goe_uniOH2+0.5        2.713e-004       0.491  2.713e-004      -3.567
	Goe_uniOHNa+0.5       1.104e-006       0.002  1.104e-006      -5.957
	Goe_uniOAsO3-2.5      9.836e-007       0.002  9.836e-007      -6.007
	Goe_uniOPO3-2.5       9.389e-007       0.002  9.389e-007      -6.027
	Goe_uni2O2PO2-2       6.067e-008       0.000  6.067e-008      -7.217
	Goe_uni2O2AsO2-2      1.597e-008       0.000  1.597e-008      -7.797
	Goe_uni2O2POOH-       5.236e-011       0.000  5.236e-011     -10.281
	Goe_uni2O2AsOOH-      3.461e-011       0.000  3.461e-011     -10.461

-----------------------------Solution composition------------------------------

	Elements           Molality       Moles

	As               3.797e-010  3.797e-010
	Cl               1.000e-002  1.000e-002
	Na               1.012e-002  1.012e-002
	P                3.970e-010  3.970e-010

----------------------------Description of solution----------------------------

                                       pH  =  10.000      Charge balance
                                       pe  =  -4.475      Adjusted to redox equilibrium
                        Activity of water  =   1.000
                           Ionic strength  =  1.003e-002
                       Mass of water (kg)  =  1.000e+000
                 Total alkalinity (eq/kg)  =  1.114e-004
                    Total carbon (mol/kg)  =  0.000e+000
                       Total CO2 (mol/kg)  =  0.000e+000
                      Temperature (deg C)  =  25.000
                  Electrical balance (eq)  =  9.514e-006
 Percent error, 100*(Cat-|An|)/(Cat+|An|)  =   0.05
                               Iterations  =  28
                                  Total H  = 1.110126e+002
                                  Total O  = 5.550634e+001

----------------------------Distribution of species----------------------------

                                                   Log       Log         Log 
   Species                 Molality    Activity  Molality  Activity     Gamma

   OH-                   1.108e-004  9.997e-005    -3.955    -4.000    -0.045
   H+                    1.109e-010  1.000e-010    -9.955   -10.000    -0.045
   H2O                   5.551e+001  9.997e-001     1.744    -0.000     0.000
As              3.797e-010
   HAsO4-2               3.641e-010  2.409e-010    -9.439    -9.618    -0.179
   AsO4-3                1.547e-011  6.108e-012   -10.811   -11.214    -0.404
   H2AsO4-               1.530e-013  1.380e-013   -12.815   -12.860    -0.045
   H3AsO4                2.409e-021  2.415e-021   -20.618   -20.617     0.001
Cl              1.000e-002
   Cl-                   9.919e-003  8.946e-003    -2.004    -2.048    -0.045
   NaCl                  8.082e-005  8.100e-005    -4.092    -4.091     0.001
H(0)            1.258e-014
   H2                    6.289e-015  6.303e-015   -14.201   -14.200     0.001
Na              1.012e-002
   Na+                   1.004e-002  9.055e-003    -1.998    -2.043    -0.045
   NaCl                  8.082e-005  8.100e-005    -4.092    -4.091     0.001
   NaOH                  5.698e-007  5.711e-007    -6.244    -6.243     0.001
O(0)            0.000e+000
   O2                    0.000e+000  0.000e+000   -63.980   -63.979     0.001
P               3.970e-010
   HPO4-2                3.936e-010  2.604e-010    -9.405    -9.584    -0.179
   PO4-3                 2.946e-012  1.163e-012   -11.531   -11.934    -0.404
   H2PO4-                4.576e-013  4.127e-013   -12.339   -12.384    -0.045
   H3PO4                 5.816e-021  5.830e-021   -20.235   -20.234     0.001
   (H2PO4)2-2            1.150e-025  7.609e-026   -24.939   -25.119    -0.179
   P2O7-4                1.346e-026  2.579e-027   -25.871   -26.589    -0.717
   HP2O7-3               1.679e-027  6.629e-028   -26.775   -27.179    -0.404
   H2P2O7-2              5.022e-031  3.323e-031   -30.299   -30.479    -0.179
   H3P2O7-               7.020e-039  6.331e-039   -38.154   -38.199    -0.045
   H4P2O7                0.000e+000  0.000e+000   -47.400   -47.399     0.001

------------------------------Saturation indices-------------------------------

	Phase               SI log IAP  log KT

	Fix_pH          -10.00  -10.00    0.00  H+

------------------
End of simulation.
------------------

------------------------------------
Reading input data for simulation 5.
------------------------------------

	USE solution 1
	USE surface 1
	EQUILIBRIUM_PHASES
	Fix_pH -8 HCl 10
	END
-----------------------------------------
Beginning of batch-reaction calculations.
-----------------------------------------

Reaction step 1.

Using solution 1.	
Using surface 1.	
Using pure phase assemblage 1.	

----------------------------------User print-----------------------------------

Charge, plane 0, eq                     1.7692e-005 
Charge, plane 1, eq                    -4.3889e-006 
Charge, plane 2, eq                     5.9695e-008 
Sigma, plane 0, C/m^2                   1.7712e-002 
Sigma, plane 1, C/m^2                  -4.3937e-003 
Sigma, plane 2, C/m^2                   5.9761e-005 
Psi, plane 0, V                         6.9075e-002 
Psi, plane 1, V                         5.2974e-002 
Psi, plane 2, V                         5.0310e-002 

-------------------------------Phase assemblage--------------------------------

                                                      Moles in assemblage
Phase                  SI log IAP  log KT      Initial       Final       Delta

Fix_pH              -8.00   -8.00    0.00
	 HCl                is reactant     1.000e+001  1.000e+001 -1.220e-005

------------------------------Surface composition------------------------------

Goe           
	 1.769e-005  Surface charge, plane 0, eq
	-4.389e-006  Surface charge, plane 1, eq
	 5.970e-008  Surface charge, plane 2, eq
	 1.336e-005  Sum of surface charge, all planes, eq

	 1.771e-002  sigma, plane 0, C/m**2
	-4.394e-003  sigma, plane 1, C/m**2
	 5.976e-005  sigma, plane 2, C/m**2
	-1.338e-002  sigma, diffuse layer, C/m**2

	 6.908e-002  psi, plane 0, V
	 5.297e-002  psi, plane 1, V
	 5.031e-002  psi, plane 2, V

	 6.797e-002  exp(-F*psi/RT), plane 0
	 1.272e-001  exp(-F*psi/RT), plane 1
	 1.411e-001  exp(-F*psi/RT), plane 2

	 1.100e+000  capacitance 0-1, F/m^2
	 5.000e+000  capacitance 1-2, F/m^2
	 9.639e+001  specific area, m^2/g
	 9.639e+001  m^2 for  1.000e+000 g


Goe_tri       
	 4.320e-004  moles
	                                        Mole                     Log
	Species                    Moles    Fraction    Molality    Molality

	Goe_triOH+0.5         2.240e-004       0.519  2.240e-004      -3.650
	Goe_triO-0.5          2.080e-004       0.481  2.080e-004      -3.682
	Goe_triONa+0.5        2.627e-008       0.000  2.627e-008      -7.581

Goe_uni       
	 5.520e-004  moles
	                                        Mole                     Log
	Species                    Moles    Fraction    Molality    Molality

	Goe_uniOH2+0.5        2.851e-004       0.517  2.851e-004      -3.545
	Goe_uniOH-0.5         2.647e-004       0.480  2.647e-004      -3.577
	Goe_uniOAsO3-2.5      9.680e-007       0.002  9.680e-007      -6.014
	Goe_uniOPO3-2.5       8.840e-007       0.002  8.840e-007      -6.054
	Goe_uni2O2PO2-2       1.158e-007       0.000  1.158e-007      -6.936
	Goe_uniOHNa+0.5       3.343e-008       0.000  3.343e-008      -7.476
	Goe_uni2O2AsO2-2      3.186e-008       0.000  3.186e-008      -7.497
	Goe_uni2O2POOH-       1.707e-010       0.000  1.707e-010      -9.768
	Goe_uni2O2AsOOH-      1.179e-010       0.000  1.179e-010      -9.928

-----------------------------Solution composition------------------------------

	Elements           Molality       Moles

	As               3.409e-013  3.409e-013
	Cl               1.001e-002  1.001e-002
	Na               1.000e-002  1.000e-002
	P                3.776e-013  3.776e-013

----------------------------Description of solution----------------------------

                                       pH  =   8.000      Charge balance
                                       pe  =  10.095      Adjusted to redox equilibrium
                        Activity of water  =   1.000
                           Ionic strength  =  9.927e-003
                       Mass of water (kg)  =  1.000e+000
                 Total alkalinity (eq/kg)  =  1.102e-006
                    Total carbon (mol/kg)  =  0.000e+000
                       Total CO2 (mol/kg)  =  0.000e+000
                      Temperature (deg C)  =  25.000
                  Electrical balance (eq)  = -1.336e-005
 Percent error, 100*(Cat-|An|)/(Cat+|An|)  =  -0.07
                               Iterations  =  49
                                  Total H  = 1.110124e+002
                                  Total O  = 5.550622e+001

----------------------------Distribution of species----------------------------

                                                   Log       Log         Log 
   Species                 Molality    Activity  Molality  Activity     Gamma

   OH-                   1.108e-006  9.997e-007    -5.956    -6.000    -0.045
   H+                    1.108e-008  1.000e-008    -7.955    -8.000    -0.045
   H2O                   5.551e+001  9.997e-001     1.744    -0.000     0.000
As              3.409e-013
   HAsO4-2               3.270e-013  2.168e-013   -12.485   -12.664    -0.179
   H2AsO4-               1.376e-014  1.242e-014   -13.861   -13.906    -0.045
   AsO4-3                1.386e-016  5.496e-017   -15.858   -16.260    -0.402
   H3AsO4                2.168e-020  2.173e-020   -19.664   -19.663     0.001
Cl              1.001e-002
   Cl-                   9.932e-003  8.962e-003    -2.003    -2.048    -0.045
   NaCl                  8.004e-005  8.022e-005    -4.097    -4.096     0.001
H(0)            9.136e-040
   H2                    4.568e-040  4.578e-040   -39.340   -39.339     0.001
Na              1.000e-002
   Na+                   9.920e-003  8.951e-003    -2.003    -2.048    -0.045
   NaCl                  8.004e-005  8.022e-005    -4.097    -4.096     0.001
   NaOH                  5.633e-009  5.646e-009    -8.249    -8.248     0.001
O(0)            3.966e-014
   O2                    1.983e-014  1.987e-014   -13.703   -13.702     0.001
P               3.776e-013
   HPO4-2                3.382e-013  2.242e-013   -12.471   -12.649    -0.179
   H2PO4-                3.938e-014  3.553e-014   -13.405   -13.449    -0.045
   PO4-3                 2.525e-017  1.001e-017   -16.598   -16.999    -0.402
   H3PO4                 5.008e-020  5.019e-020   -19.300   -19.299     0.001
   (H2PO4)2-2            8.507e-028  5.640e-028   -27.070   -27.249    -0.179
   HP2O7-3               1.239e-031  4.914e-032   -30.907   -31.309    -0.402
   P2O7-4                9.896e-033  1.912e-033   -32.005   -32.719    -0.714
   H2P2O7-2              3.715e-033  2.463e-033   -32.430   -32.609    -0.179
   H3P2O7-               5.201e-039  4.693e-039   -38.284   -38.329    -0.045
   H4P2O7                0.000e+000  0.000e+000   -45.530   -45.529     0.001

------------------------------Saturation indices-------------------------------

	Phase               SI log IAP  log KT

	Fix_pH           -8.00   -8.00    0.00  H+

------------------
End of simulation.
------------------

------------------------------------
Reading input data for simulation 6.
------------------------------------

	USE solution 1
	USE surface 1
	EQUILIBRIUM_PHASES
	Fix_pH -6 HCl 10
	END
-----------------------------------------
Beginning of batch-reaction calculations.
-----------------------------------------

Reaction step 1.

WARNING: Maximum iterations exceeded, 100

WARNING: Numerical method failed with this set of convergence parameters.

WARNING: Trying smaller step size, pe step size 10, 5 ... 

Using solution 1.	
Using surface 1.	
Using pure phase assemblage 1.	

----------------------------------User print-----------------------------------

Charge, plane 0, eq                     6.0356e-005 
Charge, plane 1, eq                    -4.1934e-006 
Charge, plane 2, eq                     4.0947e-009 
Sigma, plane 0, C/m^2                   6.0423e-002 
Sigma, plane 1, C/m^2                  -4.1980e-003 
Sigma, plane 2, C/m^2                   4.0992e-006 
Psi, plane 0, V                         1.8288e-001 
Psi, plane 1, V                         1.2795e-001 
Psi, plane 2, V                         1.1671e-001 

-------------------------------Phase assemblage--------------------------------

                                                      Moles in assemblage
Phase                  SI log IAP  log KT      Initial       Final       Delta

Fix_pH              -6.00   -6.00    0.00
	 HCl                is reactant     1.000e+001  1.000e+001 -5.726e-005

------------------------------Surface composition------------------------------

Goe           
	 6.036e-005  Surface charge, plane 0, eq
	-4.193e-006  Surface charge, plane 1, eq
	 4.095e-009  Surface charge, plane 2, eq
	 5.617e-005  Sum of surface charge, all planes, eq

	 6.042e-002  sigma, plane 0, C/m**2
	-4.198e-003  sigma, plane 1, C/m**2
	 4.099e-006  sigma, plane 2, C/m**2
	-5.623e-002  sigma, diffuse layer, C/m**2

	 1.829e-001  psi, plane 0, V
	 1.280e-001  psi, plane 1, V
	 1.167e-001  psi, plane 2, V

	 8.099e-004  exp(-F*psi/RT), plane 0
	 6.871e-003  exp(-F*psi/RT), plane 1
	 1.064e-002  exp(-F*psi/RT), plane 2

	 1.100e+000  capacitance 0-1, F/m^2
	 5.000e+000  capacitance 1-2, F/m^2
	 9.639e+001  specific area, m^2/g
	 9.639e+001  m^2 for  1.000e+000 g


Goe_tri       
	 4.320e-004  moles
	                                        Mole                     Log
	Species                    Moles    Fraction    Molality    Molality

	Goe_triOH+0.5         2.428e-004       0.562  2.428e-004      -3.615
	Goe_triO-0.5          1.892e-004       0.438  1.892e-004      -3.723
	Goe_triONa+0.5        1.802e-009       0.000  1.802e-009      -8.744

Goe_uni       
	 5.520e-004  moles
	                                        Mole                     Log
	Species                    Moles    Fraction    Molality    Molality

	Goe_uniOH2+0.5        3.089e-004       0.560  3.089e-004      -3.510
	Goe_uniOH-0.5         2.407e-004       0.436  2.407e-004      -3.619
	Goe_uniOAsO3-2.5      8.994e-007       0.002  8.994e-007      -6.046
	Goe_uniOPO3-2.5       6.931e-007       0.001  6.931e-007      -6.159
	Goe_uni2O2PO2-2       3.057e-007       0.001  3.057e-007      -6.515
	Goe_uni2O2AsO2-2      9.964e-008       0.000  9.964e-008      -7.002
	Goe_uniOHNa+0.5       2.293e-009       0.000  2.293e-009      -8.640
	Goe_uni2O2POOH-       1.143e-009       0.000  1.143e-009      -8.942
	Goe_uni2O2AsOOH-      9.358e-010       0.000  9.358e-010      -9.029

-----------------------------Solution composition------------------------------

	Elements           Molality       Moles

	As               7.411e-015  7.411e-015
	Cl               1.006e-002  1.006e-002
	Na               1.000e-002  1.000e-002
	P                1.570e-014  1.570e-014

----------------------------Description of solution----------------------------

                                       pH  =   6.000      Charge balance
                                       pe  =  12.504      Adjusted to redox equilibrium
                        Activity of water  =   1.000
                           Ionic strength  =  9.949e-003
                       Mass of water (kg)  =  1.000e+000
                 Total alkalinity (eq/kg)  = -1.097e-006
                    Total carbon (mol/kg)  =  0.000e+000
                       Total CO2 (mol/kg)  =  0.000e+000
                      Temperature (deg C)  =  25.000
                  Electrical balance (eq)  = -5.617e-005
 Percent error, 100*(Cat-|An|)/(Cat+|An|)  =  -0.28
                               Iterations  = 105
                                  Total H  = 1.110124e+002
                                  Total O  = 5.550622e+001

----------------------------Distribution of species----------------------------

                                                   Log       Log         Log 
   Species                 Molality    Activity  Molality  Activity     Gamma

   H+                    1.108e-006  1.000e-006    -5.955    -6.000    -0.045
   OH-                   1.108e-008  9.997e-009    -7.955    -8.000    -0.045
   H2O                   5.551e+001  9.997e-001     1.744    -0.000     0.000
As              7.411e-015
   H2AsO4-               5.987e-015  5.402e-015   -14.223   -14.267    -0.045
   HAsO4-2               1.423e-015  9.431e-016   -14.847   -15.025    -0.179
   H3AsO4                9.431e-019  9.453e-019   -18.025   -18.024     0.001
   AsO4-3                6.034e-021  2.391e-021   -20.219   -20.621    -0.402
Cl              1.006e-002
   Cl-                   9.977e-003  9.002e-003    -2.001    -2.046    -0.045
   NaCl                  8.038e-005  8.056e-005    -4.095    -4.094     0.001
H(0)            0.000e+000
   H2                    0.000e+000  0.000e+000   -40.159   -40.158     0.001
Na              1.000e-002
   Na+                   9.920e-003  8.950e-003    -2.004    -2.048    -0.045
   NaCl                  8.038e-005  8.056e-005    -4.095    -4.094     0.001
   NaOH                  5.632e-011  5.645e-011   -10.249   -10.248     0.001
O(0)            1.720e-012
   O2                    8.599e-013  8.619e-013   -12.066   -12.065     0.001
P               1.570e-014
   H2PO4-                1.446e-014  1.304e-014   -13.840   -13.885    -0.045
   HPO4-2                1.242e-015  8.230e-016   -14.906   -15.085    -0.179
   H3PO4                 1.838e-018  1.843e-018   -17.736   -17.735     0.001
   PO4-3                 9.278e-022  3.676e-022   -21.033   -21.435    -0.402
   (H2PO4)2-2            1.147e-028  7.600e-029   -27.940   -28.119    -0.179
   H2P2O7-2              5.008e-034  3.319e-034   -33.300   -33.479    -0.179
   HP2O7-3               1.671e-034  6.622e-035   -33.777   -34.179    -0.402
   P2O7-4                1.336e-037  2.576e-038   -36.874   -37.589    -0.715
   H3P2O7-               7.009e-038  6.324e-038   -37.154   -37.199    -0.045
   H4P2O7                0.000e+000  0.000e+000   -42.400   -42.399     0.001

------------------------------Saturation indices-------------------------------

	Phase               SI log IAP  log KT

	Fix_pH           -6.00   -6.00    0.00  H+

------------------
End of simulation.
------------------

------------------------------------
Reading input data for simulation 7.
------------------------------------

	USE solution 1
	USE surface 1
	EQUILIBRIUM_PHASES
	Fix_pH -4 HCl 10
	END
-----------------------------------------
Beginning of batch-reaction calculations.
-----------------------------------------

Reaction step 1.

Using solution 1.	
Using surface 1.	
Using pure phase assemblage 1.	

----------------------------------User print-----------------------------------

Charge, plane 0, eq                     1.2539e-004 
Charge, plane 1, eq                    -3.6181e-006 
Charge, plane 2, eq                     7.6323e-010 
Sigma, plane 0, C/m^2                   1.2553e-001 
Sigma, plane 1, C/m^2                  -3.6221e-003 
Sigma, plane 2, C/m^2                   7.6408e-007 
Psi, plane 0, V                         2.9409e-001 
Psi, plane 1, V                         1.7998e-001 
Psi, plane 2, V                         1.5559e-001 

-------------------------------Phase assemblage--------------------------------

                                                      Moles in assemblage
Phase                  SI log IAP  log KT      Initial       Final       Delta

Fix_pH              -4.00   -4.00    0.00
	 HCl                is reactant     1.000e+001  1.000e+001 -2.327e-004

------------------------------Surface composition------------------------------

Goe           
	 1.254e-004  Surface charge, plane 0, eq
	-3.618e-006  Surface charge, plane 1, eq
	 7.632e-010  Surface charge, plane 2, eq
	 1.218e-004  Sum of surface charge, all planes, eq

	 1.255e-001  sigma, plane 0, C/m**2
	-3.622e-003  sigma, plane 1, C/m**2
	 7.641e-007  sigma, plane 2, C/m**2
	-1.219e-001  sigma, diffuse layer, C/m**2

	 2.941e-001  psi, plane 0, V
	 1.800e-001  psi, plane 1, V
	 1.556e-001  psi, plane 2, V

	 1.068e-005  exp(-F*psi/RT), plane 0
	 9.070e-004  exp(-F*psi/RT), plane 1
	 2.343e-003  exp(-F*psi/RT), plane 2

	 1.100e+000  capacitance 0-1, F/m^2
	 5.000e+000  capacitance 1-2, F/m^2
	 9.639e+001  specific area, m^2/g
	 9.639e+001  m^2 for  1.000e+000 g


Goe_tri       
	 4.320e-004  moles
	                                        Mole                     Log
	Species                    Moles    Fraction    Molality    Molality

	Goe_triOH+0.5         2.716e-004       0.629  2.716e-004      -3.566
	Goe_triO-0.5          1.604e-004       0.371  1.604e-004      -3.795
	Goe_triONa+0.5        3.362e-010       0.000  3.362e-010      -9.473

Goe_uni       
	 5.520e-004  moles
	                                        Mole                     Log
	Species                    Moles    Fraction    Molality    Molality

	Goe_uniOH2+0.5        3.450e-004       0.625  3.450e-004      -3.462
	Goe_uniOH-0.5         2.038e-004       0.369  2.038e-004      -3.691
	Goe_uni2O2PO2-2       7.266e-007       0.003  7.266e-007      -6.139
	Goe_uniOAsO3-2.5      5.802e-007       0.001  5.802e-007      -6.236
	Goe_uni2O2AsO2-2      4.040e-007       0.001  4.040e-007      -6.394
	Goe_uniOPO3-2.5       2.621e-007       0.000  2.621e-007      -6.582
	Goe_uni2O2AsOOH-      1.583e-008       0.000  1.583e-008      -7.801
	Goe_uni2O2POOH-       1.133e-008       0.000  1.133e-008      -7.946
	Goe_uniOHNa+0.5       4.271e-010       0.000  4.271e-010      -9.369

-----------------------------Solution composition------------------------------

	Elements           Molality       Moles

	As               1.440e-014  1.440e-014
	Cl               1.023e-002  1.023e-002
	Na               1.000e-002  1.000e-002
	P                2.029e-014  2.029e-014

----------------------------Description of solution----------------------------

                                       pH  =   4.000      Charge balance
                                       pe  =  13.922      Adjusted to redox equilibrium
                        Activity of water  =   1.000
                           Ionic strength  =  1.009e-002
                       Mass of water (kg)  =  1.000e+000
                 Total alkalinity (eq/kg)  = -1.109e-004
                    Total carbon (mol/kg)  =  0.000e+000
                       Total CO2 (mol/kg)  =  0.000e+000
                      Temperature (deg C)  =  25.000
                  Electrical balance (eq)  = -1.218e-004
 Percent error, 100*(Cat-|An|)/(Cat+|An|)  =  -0.60
                               Iterations  =  50
                                  Total H  = 1.110126e+002
                                  Total O  = 5.550622e+001

----------------------------Distribution of species----------------------------

                                                   Log       Log         Log 
   Species                 Molality    Activity  Molality  Activity     Gamma

   H+                    1.109e-004  1.000e-004    -3.955    -4.000    -0.045
   OH-                   1.109e-010  9.997e-011    -9.955   -10.000    -0.045
   H2O                   5.551e+001  9.997e-001     1.744    -0.000     0.000
As              1.440e-014
   H2AsO4-               1.414e-014  1.275e-014   -13.849   -13.894    -0.045
   H3AsO4                2.227e-016  2.232e-016   -15.652   -15.651     0.001
   HAsO4-2               3.368e-017  2.227e-017   -16.473   -16.652    -0.180
   AsO4-3                1.433e-024  5.645e-025   -23.844   -24.248    -0.405
Cl              1.023e-002
   Cl-                   1.015e-002  9.153e-003    -1.993    -2.038    -0.045
   NaCl                  8.167e-005  8.186e-005    -4.088    -4.087     0.001
H(0)            2.020e-039
   H2                    1.010e-039  1.012e-039   -38.996   -38.995     0.001
Na              1.000e-002
   Na+                   9.918e-003  8.943e-003    -2.004    -2.049    -0.045
   NaCl                  8.167e-005  8.186e-005    -4.088    -4.087     0.001
   NaOH                  5.628e-013  5.641e-013   -12.250   -12.249     0.001
O(0)            8.110e-015
   O2                    4.055e-015  4.065e-015   -14.392   -14.391     0.001
P               2.029e-014
   H2PO4-                2.002e-014  1.805e-014   -13.699   -13.743    -0.045
   H3PO4                 2.544e-016  2.550e-016   -15.594   -15.593     0.001
   HPO4-2                1.723e-017  1.139e-017   -16.764   -16.943    -0.180
   PO4-3                 1.291e-025  5.088e-026   -24.889   -25.293    -0.405
   (H2PO4)2-2            2.202e-028  1.456e-028   -27.657   -27.837    -0.180
   H2P2O7-2              9.616e-034  6.357e-034   -33.017   -33.197    -0.180
   H3P2O7-               1.343e-035  1.211e-035   -34.872   -34.917    -0.045
   HP2O7-3               3.219e-036  1.268e-036   -35.492   -35.897    -0.405
   H4P2O7                7.625e-039  7.642e-039   -38.118   -38.117     0.001
   P2O7-4                0.000e+000  0.000e+000   -40.588   -41.307    -0.719

------------------------------Saturation indices-------------------------------

	Phase               SI log IAP  log KT

	Fix_pH           -4.00   -4.00    0.00  H+

------------------
End of simulation.
------------------

------------------------------------
Reading input data for simulation 8.
------------------------------------

	SURFACE
		Goe_uniOHH0.5 .000552 96.387 1  # 1.1   5
		Goe_triOH0.5  .000432
			  capacitances	  1.1 5
		donnan
		cd_music
	END
------------------
End of simulation.
------------------

------------------------------------
Reading input data for simulation 9.
------------------------------------

	USE solution 1
	USE surface 1
	EQUILIBRIUM_PHASES
	Fix_pH -10 NaOH 10
	END
-----------------------------------------
Beginning of batch-reaction calculations.
-----------------------------------------

Reaction step 1.

Using solution 1.	
Using surface 1.	
Using pure phase assemblage 1.	

----------------------------------User print-----------------------------------

Charge, plane 0, eq                    -7.0380e-006 
Charge, plane 1, eq                    -4.4407e-006 
Charge, plane 2, eq                     1.9694e-006 
Sigma, plane 0, C/m^2                  -7.0458e-003 
Sigma, plane 1, C/m^2                  -4.4456e-003 
Sigma, plane 2, C/m^2                   1.9716e-003 
Psi, plane 0, V                        -4.6744e-002 
Psi, plane 1, V                        -4.0339e-002 
Psi, plane 2, V                        -3.8041e-002 

-------------------------------Phase assemblage--------------------------------

                                                      Moles in assemblage
Phase                  SI log IAP  log KT      Initial       Final       Delta

Fix_pH             -10.00  -10.00    0.00
	 NaOH               is reactant     1.000e+001  1.000e+001 -1.229e-004

------------------------------Surface composition------------------------------

Goe           
	 4.371e-019  Surface + diffuse layer charge, eq

	-7.038e-006  Surface charge, plane 0, eq
	-4.441e-006  Surface charge, plane 1, eq
	 1.969e-006  Surface charge, plane 2, eq
	-9.509e-006  Sum of surface charge, all planes, eq

	-7.046e-003  sigma, plane 0, C/m**2
	-4.446e-003  sigma, plane 1, C/m**2
	 1.972e-003  sigma, plane 2, C/m**2
	 9.520e-003  sigma, diffuse layer, C/m**2

	-4.674e-002  psi, plane 0, V
	-4.034e-002  psi, plane 1, V
	-3.804e-002  psi, plane 2, V

	 6.169e+000  exp(-F*psi/RT), plane 0
	 4.807e+000  exp(-F*psi/RT), plane 1
	 4.396e+000  exp(-F*psi/RT), plane 2

	 1.100e+000  capacitance 0-1, F/m^2
	 5.000e+000  capacitance 1-2, F/m^2
	 9.639e+001  specific area, m^2/g
	 9.639e+001  m^2 for  1.000e+000 g

	Water in diffuse layer: 9.639e-004 kg, 100.0% of total DDL-water.

	Total moles in diffuse layer (excluding water), Donnan calculation 

	Element       	     Moles
	As            	 1.3971e-013
	Cl            	 6.0251e-006
	H             	 6.7042e-008
	Na            	 1.5601e-005
	O             	 6.7043e-008
	P             	 1.4799e-013

Goe_tri       
	 4.320e-004  moles
	                                        Mole                     Log
	Species                    Moles    Fraction    Molality    Molality

	Goe_triO-0.5          2.180e-004       0.505  2.180e-004      -3.662
	Goe_triOH+0.5         2.131e-004       0.493  2.131e-004      -3.671
	Goe_triONa+0.5        8.665e-007       0.002  8.665e-007      -6.062

Goe_uni       
	 5.520e-004  moles
	                                        Mole                     Log
	Species                    Moles    Fraction    Molality    Molality

	Goe_uniOH-0.5         2.775e-004       0.503  2.775e-004      -3.557
	Goe_uniOH2+0.5        2.713e-004       0.492  2.713e-004      -3.567
	Goe_uniOHNa+0.5       1.103e-006       0.002  1.103e-006      -5.957
	Goe_uniOAsO3-2.5      9.836e-007       0.002  9.836e-007      -6.007
	Goe_uniOPO3-2.5       9.389e-007       0.002  9.389e-007      -6.027
	Goe_uni2O2PO2-2       6.068e-008       0.000  6.068e-008      -7.217
	Goe_uni2O2AsO2-2      1.597e-008       0.000  1.597e-008      -7.797
	Goe_uni2O2POOH-       5.237e-011       0.000  5.237e-011     -10.281
	Goe_uni2O2AsOOH-      3.462e-011       0.000  3.462e-011     -10.461

-----------------------------Solution composition------------------------------

	Elements           Molality       Moles

	As               3.799e-010  3.799e-010
	Cl               9.994e-003  9.994e-003
	Na               1.011e-002  1.011e-002
	P                3.971e-010  3.971e-010

----------------------------Description of solution----------------------------

                                       pH  =  10.000      Charge balance
                                       pe  =  -4.660      Adjusted to redox equilibrium
                        Activity of water  =   1.000
                           Ionic strength  =  1.002e-002
                       Mass of water (kg)  =  1.000e+000
                 Total alkalinity (eq/kg)  =  1.114e-004
                    Total carbon (mol/kg)  =  0.000e+000
                       Total CO2 (mol/kg)  =  0.000e+000
                      Temperature (deg C)  =  25.000
                  Electrical balance (eq)  = -7.659e-018
 Percent error, 100*(Cat-|An|)/(Cat+|An|)  =  -0.00
                               Iterations  =   1
                                  Total H  = 1.110126e+002
                                  Total O  = 5.550634e+001

----------------------------Distribution of species----------------------------

                                                   Log       Log         Log 
   Species                 Molality    Activity  Molality  Activity     Gamma

   OH-                   1.108e-004  9.997e-005    -3.955    -4.000    -0.045
   H+                    1.109e-010  1.000e-010    -9.955   -10.000    -0.045
   H2O                   5.551e+001  9.997e-001     1.744    -0.000     0.000
As              3.799e-010
   HAsO4-2               3.643e-010  2.411e-010    -9.439    -9.618    -0.179
   AsO4-3                1.547e-011  6.112e-012   -10.810   -11.214    -0.403
   H2AsO4-               1.531e-013  1.381e-013   -12.815   -12.860    -0.045
   H3AsO4                2.411e-021  2.416e-021   -20.618   -20.617     0.001
Cl              9.994e-003
   Cl-                   9.913e-003  8.941e-003    -2.004    -2.049    -0.045
   NaCl                  8.065e-005  8.084e-005    -4.093    -4.092     0.001
H(0)            2.946e-014
   H2                    1.473e-014  1.477e-014   -13.832   -13.831     0.001
Na              1.011e-002
   Na+                   1.002e-002  9.041e-003    -1.999    -2.044    -0.045
   NaCl                  8.065e-005  8.084e-005    -4.093    -4.092     0.001
   NaOH                  5.690e-007  5.703e-007    -6.245    -6.244     0.001
O(0)            0.000e+000
   O2                    0.000e+000  0.000e+000   -64.720   -64.719     0.001
P               3.971e-010
   HPO4-2                3.937e-010  2.606e-010    -9.405    -9.584    -0.179
   PO4-3                 2.946e-012  1.164e-012   -11.531   -11.934    -0.403
   H2PO4-                4.579e-013  4.130e-013   -12.339   -12.384    -0.045
   H3PO4                 5.820e-021  5.834e-021   -20.235   -20.234     0.001
   (H2PO4)2-2            1.151e-025  7.618e-026   -24.939   -25.118    -0.179
   P2O7-4                1.346e-026  2.582e-027   -25.871   -26.588    -0.717
   HP2O7-3               1.680e-027  6.638e-028   -26.775   -27.178    -0.403
   H2P2O7-2              5.027e-031  3.327e-031   -30.299   -30.478    -0.179
   H3P2O7-               7.028e-039  6.339e-039   -38.153   -38.198    -0.045
   H4P2O7                0.000e+000  0.000e+000   -47.399   -47.398     0.001

------------------------------Saturation indices-------------------------------

	Phase               SI log IAP  log KT

	Fix_pH          -10.00  -10.00    0.00  H+

------------------
End of simulation.
------------------

-------------------------------------
Reading input data for simulation 10.
-------------------------------------

	USE solution 1
	USE surface 1
	EQUILIBRIUM_PHASES
	Fix_pH -8 HCl 10
	END
-----------------------------------------
Beginning of batch-reaction calculations.
-----------------------------------------

Reaction step 1.

Using solution 1.	
Using surface 1.	
Using pure phase assemblage 1.	

----------------------------------User print-----------------------------------

Charge, plane 0, eq                     1.7683e-005 
Charge, plane 1, eq                    -4.3889e-006 
Charge, plane 2, eq                     5.9646e-008 
Sigma, plane 0, C/m^2                   1.7703e-002 
Sigma, plane 1, C/m^2                  -4.3937e-003 
Sigma, plane 2, C/m^2                   5.9712e-005 
Psi, plane 0, V                         6.9076e-002 
Psi, plane 1, V                         5.2982e-002 
Psi, plane 2, V                         5.0321e-002 

-------------------------------Phase assemblage--------------------------------

                                                      Moles in assemblage
Phase                  SI log IAP  log KT      Initial       Final       Delta

Fix_pH              -8.00   -8.00    0.00
	 HCl                is reactant     1.000e+001  1.000e+001 -1.219e-005

------------------------------Surface composition------------------------------

Goe           
	 2.389e-019  Surface + diffuse layer charge, eq

	 1.768e-005  Surface charge, plane 0, eq
	-4.389e-006  Surface charge, plane 1, eq
	 5.965e-008  Surface charge, plane 2, eq
	 1.335e-005  Sum of surface charge, all planes, eq

	 1.770e-002  sigma, plane 0, C/m**2
	-4.394e-003  sigma, plane 1, C/m**2
	 5.971e-005  sigma, plane 2, C/m**2
	-1.337e-002  sigma, diffuse layer, C/m**2

	 6.908e-002  psi, plane 0, V
	 5.298e-002  psi, plane 1, V
	 5.032e-002  psi, plane 2, V

	 6.797e-002  exp(-F*psi/RT), plane 0
	 1.272e-001  exp(-F*psi/RT), plane 1
	 1.410e-001  exp(-F*psi/RT), plane 2

	 1.100e+000  capacitance 0-1, F/m^2
	 5.000e+000  capacitance 1-2, F/m^2
	 9.639e+001  specific area, m^2/g
	 9.639e+001  m^2 for  1.000e+000 g

	Water in diffuse layer: 9.639e-004 kg, 100.0% of total DDL-water.

	Total moles in diffuse layer (excluding water), Donnan calculation 

	Element       	     Moles
	As            	 1.1855e-015
	Cl            	 1.8410e-005
	H             	 2.0596e-009
	Na            	 5.0582e-006
	O             	 2.0540e-009
	P             	 1.2716e-015

Goe_tri       
	 4.320e-004  moles
	                                        Mole                     Log
	Species                    Moles    Fraction    Molality    Molality

	Goe_triOH+0.5         2.240e-004       0.519  2.240e-004      -3.650
	Goe_triO-0.5          2.080e-004       0.481  2.080e-004      -3.682
	Goe_triONa+0.5        2.624e-008       0.000  2.624e-008      -7.581

Goe_uni       
	 5.520e-004  moles
	                                        Mole                     Log
	Species                    Moles    Fraction    Molality    Molality

	Goe_uniOH2+0.5        2.851e-004       0.517  2.851e-004      -3.545
	Goe_uniOH-0.5         2.647e-004       0.480  2.647e-004      -3.577
	Goe_uniOAsO3-2.5      9.680e-007       0.002  9.680e-007      -6.014
	Goe_uniOPO3-2.5       8.840e-007       0.002  8.840e-007      -6.054
	Goe_uni2O2PO2-2       1.158e-007       0.000  1.158e-007      -6.936
	Goe_uniOHNa+0.5       3.340e-008       0.000  3.340e-008      -7.476
	Goe_uni2O2AsO2-2      3.186e-008       0.000  3.186e-008      -7.497
	Goe_uni2O2POOH-       1.706e-010       0.000  1.706e-010      -9.768
	Goe_uni2O2AsOOH-      1.179e-010       0.000  1.179e-010      -9.928

-----------------------------Solution composition------------------------------

	Elements           Molality       Moles

	As               3.406e-013  3.406e-013
	Cl               9.994e-003  9.994e-003
	Na               9.995e-003  9.995e-003
	P                3.772e-013  3.772e-013

----------------------------Description of solution----------------------------

                                       pH  =   8.000      Charge balance
                                       pe  =  -1.508      Adjusted to redox equilibrium
                        Activity of water  =   1.000
                           Ionic strength  =  9.915e-003
                       Mass of water (kg)  =  1.000e+000
                 Total alkalinity (eq/kg)  =  1.102e-006
                    Total carbon (mol/kg)  =  0.000e+000
                       Total CO2 (mol/kg)  =  0.000e+000
                      Temperature (deg C)  =  25.000
                  Electrical balance (eq)  = -5.881e-018
 Percent error, 100*(Cat-|An|)/(Cat+|An|)  =  -0.00
                               Iterations  =   1
                                  Total H  = 1.110124e+002
                                  Total O  = 5.550622e+001

----------------------------Distribution of species----------------------------

                                                   Log       Log         Log 
   Species                 Molality    Activity  Molality  Activity     Gamma

   OH-                   1.108e-006  9.997e-007    -5.956    -6.000    -0.045
   H+                    1.108e-008  1.000e-008    -7.955    -8.000    -0.045
   H2O                   5.551e+001  9.997e-001     1.744    -0.000     0.000
As              3.406e-013
   HAsO4-2               3.267e-013  2.166e-013   -12.486   -12.664    -0.178
   H2AsO4-               1.375e-014  1.241e-014   -13.862   -13.906    -0.045
   AsO4-3                1.384e-016  5.492e-017   -15.859   -16.260    -0.401
   H3AsO4                2.166e-020  2.171e-020   -19.664   -19.663     0.001
Cl              9.994e-003
   Cl-                   9.914e-003  8.946e-003    -2.004    -2.048    -0.045
   NaCl                  7.986e-005  8.004e-005    -4.098    -4.097     0.001
H(0)            1.469e-016
   H2                    7.344e-017  7.361e-017   -16.134   -16.133     0.001
Na              9.995e-003
   Na+                   9.915e-003  8.947e-003    -2.004    -2.048    -0.045
   NaCl                  7.986e-005  8.004e-005    -4.098    -4.097     0.001
   NaOH                  5.631e-009  5.643e-009    -8.249    -8.248     0.001
O(0)            0.000e+000
   O2                    0.000e+000  0.000e+000   -60.115   -60.114     0.001
P               3.772e-013
   HPO4-2                3.379e-013  2.240e-013   -12.471   -12.650    -0.178
   H2PO4-                3.935e-014  3.551e-014   -13.405   -13.450    -0.045
   PO4-3                 2.522e-017  1.001e-017   -16.598   -17.000    -0.401
   H3PO4                 5.004e-020  5.015e-020   -19.301   -19.300     0.001
   (H2PO4)2-2            8.493e-028  5.632e-028   -27.071   -27.249    -0.178
   HP2O7-3               1.237e-031  4.907e-032   -30.908   -31.309    -0.401
   P2O7-4                9.873e-033  1.909e-033   -32.006   -32.719    -0.714
   H2P2O7-2              3.708e-033  2.459e-033   -32.431   -32.609    -0.178
   H3P2O7-               5.193e-039  4.686e-039   -38.285   -38.329    -0.045
   H4P2O7                0.000e+000  0.000e+000   -45.530   -45.529     0.001

------------------------------Saturation indices-------------------------------

	Phase               SI log IAP  log KT

	Fix_pH           -8.00   -8.00    0.00  H+

------------------
End of simulation.
------------------

-------------------------------------
Reading input data for simulation 11.
-------------------------------------

	USE solution 1
	USE surface 1
	EQUILIBRIUM_PHASES
	Fix_pH -6 HCl 10
	END
-----------------------------------------
Beginning of batch-reaction calculations.
-----------------------------------------

Reaction step 1.

Using solution 1.	
Using surface 1.	
Using pure phase assemblage 1.	

----------------------------------User print-----------------------------------

Charge, plane 0, eq                     6.0288e-005 
Charge, plane 1, eq                    -4.1938e-006 
Charge, plane 2, eq                     4.0821e-009 
Sigma, plane 0, C/m^2                   6.0355e-002 
Sigma, plane 1, C/m^2                  -4.1985e-003 
Sigma, plane 2, C/m^2                   4.0866e-006 
Psi, plane 0, V                         1.8289e-001 
Psi, plane 1, V                         1.2802e-001 
Psi, plane 2, V                         1.1679e-001 

-------------------------------Phase assemblage--------------------------------

                                                      Moles in assemblage
Phase                  SI log IAP  log KT      Initial       Final       Delta

Fix_pH              -6.00   -6.00    0.00
	 HCl                is reactant     1.000e+001  1.000e+001 -5.719e-005

------------------------------Surface composition------------------------------

Goe           
	 3.862e-019  Surface + diffuse layer charge, eq

	 6.029e-005  Surface charge, plane 0, eq
	-4.194e-006  Surface charge, plane 1, eq
	 4.082e-009  Surface charge, plane 2, eq
	 5.610e-005  Sum of surface charge, all planes, eq

	 6.035e-002  sigma, plane 0, C/m**2
	-4.198e-003  sigma, plane 1, C/m**2
	 4.087e-006  sigma, plane 2, C/m**2
	-5.616e-002  sigma, diffuse layer, C/m**2

	 1.829e-001  psi, plane 0, V
	 1.280e-001  psi, plane 1, V
	 1.168e-001  psi, plane 2, V

	 8.097e-004  exp(-F*psi/RT), plane 0
	 6.852e-003  exp(-F*psi/RT), plane 1
	 1.061e-002  exp(-F*psi/RT), plane 2

	 1.100e+000  capacitance 0-1, F/m^2
	 5.000e+000  capacitance 1-2, F/m^2
	 9.639e+001  specific area, m^2/g
	 9.639e+001  m^2 for  1.000e+000 g

	Water in diffuse layer: 9.639e-004 kg, 100.0% of total DDL-water.

	Total moles in diffuse layer (excluding water), Donnan calculation 

	Element       	     Moles
	As            	 8.4211e-017
	Cl            	 5.7760e-005
	H             	 2.4152e-010
	Na            	 1.6616e-006
	O             	 6.4476e-011
	P             	 1.2690e-016

Goe_tri       
	 4.320e-004  moles
	                                        Mole                     Log
	Species                    Moles    Fraction    Molality    Molality

	Goe_triOH+0.5         2.428e-004       0.562  2.428e-004      -3.615
	Goe_triO-0.5          1.892e-004       0.438  1.892e-004      -3.723
	Goe_triONa+0.5        1.797e-009       0.000  1.797e-009      -8.746

Goe_uni       
	 5.520e-004  moles
	                                        Mole                     Log
	Species                    Moles    Fraction    Molality    Molality

	Goe_uniOH2+0.5        3.089e-004       0.560  3.089e-004      -3.510
	Goe_uniOH-0.5         2.407e-004       0.436  2.407e-004      -3.619
	Goe_uniOAsO3-2.5      8.996e-007       0.002  8.996e-007      -6.046
	Goe_uniOPO3-2.5       6.936e-007       0.001  6.936e-007      -6.159
	Goe_uni2O2PO2-2       3.053e-007       0.001  3.053e-007      -6.515
	Goe_uni2O2AsO2-2      9.947e-008       0.000  9.947e-008      -7.002
	Goe_uniOHNa+0.5       2.286e-009       0.000  2.286e-009      -8.641
	Goe_uni2O2POOH-       1.140e-009       0.000  1.140e-009      -8.943
	Goe_uni2O2AsOOH-      9.328e-010       0.000  9.328e-010      -9.030

-----------------------------Solution composition------------------------------

	Elements           Molality       Moles

	As               7.366e-015  7.366e-015
	Cl               9.999e-003  9.999e-003
	Na               9.998e-003  9.998e-003
	P                1.561e-014  1.561e-014

----------------------------Description of solution----------------------------

                                       pH  =   6.000      Charge balance
                                       pe  =  11.922      Adjusted to redox equilibrium
                        Activity of water  =   1.000
                           Ionic strength  =  9.920e-003
                       Mass of water (kg)  =  1.000e+000
                 Total alkalinity (eq/kg)  = -1.097e-006
                    Total carbon (mol/kg)  =  0.000e+000
                       Total CO2 (mol/kg)  =  0.000e+000
                      Temperature (deg C)  =  25.000
                  Electrical balance (eq)  = -1.094e-017
 Percent error, 100*(Cat-|An|)/(Cat+|An|)  =  -0.00
                               Iterations  =   1
                                  Total H  = 1.110124e+002
                                  Total O  = 5.550622e+001

----------------------------Distribution of species----------------------------

                                                   Log       Log         Log 
   Species                 Molality    Activity  Molality  Activity     Gamma

   H+                    1.108e-006  1.000e-006    -5.955    -6.000    -0.045
   OH-                   1.108e-008  9.997e-009    -7.956    -8.000    -0.045
   H2O                   5.551e+001  9.997e-001     1.744    -0.000     0.000
As              7.366e-015
   H2AsO4-               5.951e-015  5.370e-015   -14.225   -14.270    -0.045
   HAsO4-2               1.414e-015  9.375e-016   -14.850   -15.028    -0.178
   H3AsO4                9.375e-019  9.396e-019   -18.028   -18.027     0.001
   AsO4-3                5.991e-021  2.377e-021   -20.223   -20.624    -0.402
Cl              9.999e-003
   Cl-                   9.920e-003  8.951e-003    -2.004    -2.048    -0.045
   NaCl                  7.993e-005  8.011e-005    -4.097    -4.096     0.001
H(0)            2.023e-039
   H2                    1.011e-039  1.014e-039   -38.995   -38.994     0.001
Na              9.998e-003
   Na+                   9.918e-003  8.950e-003    -2.004    -2.048    -0.045
   NaCl                  7.993e-005  8.011e-005    -4.097    -4.096     0.001
   NaOH                  5.632e-011  5.645e-011   -10.249   -10.248     0.001
O(0)            8.088e-015
   O2                    4.044e-015  4.053e-015   -14.393   -14.392     0.001
P               1.561e-014
   H2PO4-                1.438e-014  1.297e-014   -13.842   -13.887    -0.045
   HPO4-2                1.234e-015  8.185e-016   -14.909   -15.087    -0.178
   H3PO4                 1.828e-018  1.832e-018   -17.738   -17.737     0.001
   PO4-3                 9.216e-022  3.656e-022   -21.035   -21.437    -0.402
   (H2PO4)2-2            1.134e-028  7.516e-029   -27.946   -28.124    -0.178
   H2P2O7-2              4.950e-034  3.282e-034   -33.305   -33.484    -0.178
   HP2O7-3               1.651e-034  6.548e-035   -33.782   -34.184    -0.402
   P2O7-4                1.318e-037  2.548e-038   -36.880   -37.594    -0.714
   H3P2O7-               6.930e-038  6.254e-038   -37.159   -37.204    -0.045
   H4P2O7                0.000e+000  0.000e+000   -42.405   -42.404     0.001

------------------------------Saturation indices-------------------------------

	Phase               SI log IAP  log KT

	Fix_pH           -6.00   -6.00    0.00  H+

------------------
End of simulation.
------------------

-------------------------------------
Reading input data for simulation 12.
-------------------------------------

	USE solution 1
	USE surface 1
	EQUILIBRIUM_PHASES
	Fix_pH -4 HCl 10
	END
-----------------------------------------
Beginning of batch-reaction calculations.
-----------------------------------------

Reaction step 1.

Using solution 1.	
Using surface 1.	
Using pure phase assemblage 1.	

----------------------------------User print-----------------------------------

Charge, plane 0, eq                     1.2520e-004 
Charge, plane 1, eq                    -3.6200e-006 
Charge, plane 2, eq                     7.5706e-010 
Sigma, plane 0, C/m^2                   1.2534e-001 
Sigma, plane 1, C/m^2                  -3.6240e-003 
Sigma, plane 2, C/m^2                   7.5790e-007 
Psi, plane 0, V                         2.9411e-001 
Psi, plane 1, V                         1.8017e-001 
Psi, plane 2, V                         1.5582e-001 

-------------------------------Phase assemblage--------------------------------

                                                      Moles in assemblage
Phase                  SI log IAP  log KT      Initial       Final       Delta

Fix_pH              -4.00   -4.00    0.00
	 HCl                is reactant     1.000e+001  1.000e+001 -2.325e-004

------------------------------Surface composition------------------------------

Goe           
	-4.834e-016  Surface + diffuse layer charge, eq

	 1.252e-004  Surface charge, plane 0, eq
	-3.620e-006  Surface charge, plane 1, eq
	 7.571e-010  Surface charge, plane 2, eq
	 1.216e-004  Sum of surface charge, all planes, eq

	 1.253e-001  sigma, plane 0, C/m**2
	-3.624e-003  sigma, plane 1, C/m**2
	 7.579e-007  sigma, plane 2, C/m**2
	-1.217e-001  sigma, diffuse layer, C/m**2

	 2.941e-001  psi, plane 0, V
	 1.802e-001  psi, plane 1, V
	 1.558e-001  psi, plane 2, V

	 1.067e-005  exp(-F*psi/RT), plane 0
	 9.003e-004  exp(-F*psi/RT), plane 1
	 2.322e-003  exp(-F*psi/RT), plane 2

	 1.100e+000  capacitance 0-1, F/m^2
	 5.000e+000  capacitance 1-2, F/m^2
	 9.639e+001  specific area, m^2/g
	 9.639e+001  m^2 for  1.000e+000 g

	Water in diffuse layer: 9.639e-004 kg, 100.0% of total DDL-water.

	Total moles in diffuse layer (excluding water), Donnan calculation 

	Element       	     Moles
	As            	 1.7529e-016
	Cl            	 1.2242e-004
	H             	 8.4455e-009
	Na            	 8.3320e-007
	O             	 1.3543e-012
	P             	 2.4384e-016

Goe_tri       
	 4.320e-004  moles
	                                        Mole                     Log
	Species                    Moles    Fraction    Molality    Molality

	Goe_triOH+0.5         2.715e-004       0.628  2.715e-004      -3.566
	Goe_triO-0.5          1.605e-004       0.372  1.605e-004      -3.794
	Goe_triONa+0.5        3.334e-010       0.000  3.334e-010      -9.477

Goe_uni       
	 5.520e-004  moles
	                                        Mole                     Log
	Species                    Moles    Fraction    Molality    Molality

	Goe_uniOH2+0.5        3.449e-004       0.625  3.449e-004      -3.462
	Goe_uniOH-0.5         2.039e-004       0.369  2.039e-004      -3.691
	Goe_uni2O2PO2-2       7.256e-007       0.003  7.256e-007      -6.139
	Goe_uniOAsO3-2.5      5.815e-007       0.001  5.815e-007      -6.235
	Goe_uni2O2AsO2-2      4.028e-007       0.001  4.028e-007      -6.395
	Goe_uniOPO3-2.5       2.631e-007       0.000  2.631e-007      -6.580
	Goe_uni2O2AsOOH-      1.572e-008       0.000  1.572e-008      -7.804
	Goe_uni2O2POOH-       1.127e-008       0.000  1.127e-008      -7.948
	Goe_uniOHNa+0.5       4.236e-010       0.000  4.236e-010      -9.373

-----------------------------Solution composition------------------------------

	Elements           Molality       Moles

	As               1.419e-014  1.419e-014
	Cl               1.011e-002  1.011e-002
	Na               9.999e-003  9.999e-003
	P                2.002e-014  2.002e-014

----------------------------Description of solution----------------------------

                                       pH  =   4.000      Charge balance
                                       pe  =   3.810      Adjusted to redox equilibrium
                        Activity of water  =   1.000
                           Ionic strength  =  1.003e-002
                       Mass of water (kg)  =  1.000e+000
                 Total alkalinity (eq/kg)  = -1.109e-004
                    Total carbon (mol/kg)  =  0.000e+000
                       Total CO2 (mol/kg)  =  0.000e+000
                      Temperature (deg C)  =  25.000
                  Electrical balance (eq)  = -1.043e-017
 Percent error, 100*(Cat-|An|)/(Cat+|An|)  =  -0.00
                               Iterations  =   1
                                  Total H  = 1.110126e+002
                                  Total O  = 5.550622e+001

----------------------------Distribution of species----------------------------

                                                   Log       Log         Log 
   Species                 Molality    Activity  Molality  Activity     Gamma

   H+                    1.109e-004  1.000e-004    -3.955    -4.000    -0.045
   OH-                   1.108e-010  9.997e-011    -9.955   -10.000    -0.045
   H2O                   5.551e+001  9.997e-001     1.744    -0.000     0.000
As              1.419e-014
   H2AsO4-               1.393e-014  1.257e-014   -13.856   -13.901    -0.045
   H3AsO4                2.194e-016  2.199e-016   -15.659   -15.658     0.001
   HAsO4-2               3.315e-017  2.194e-017   -16.479   -16.659    -0.179
   AsO4-3                1.408e-024  5.562e-025   -23.851   -24.255    -0.403
Cl              1.011e-002
   Cl-                   1.003e-002  9.046e-003    -1.999    -2.044    -0.045
   NaCl                  8.073e-005  8.092e-005    -4.093    -4.092     0.001
H(0)            3.386e-019
   H2                    1.693e-019  1.697e-019   -18.771   -18.770     0.001
Na              9.999e-003
   Na+                   9.918e-003  8.946e-003    -2.004    -2.048    -0.045
   NaCl                  8.073e-005  8.092e-005    -4.093    -4.092     0.001
   NaOH                  5.629e-013  5.642e-013   -12.250   -12.249     0.001
O(0)            0.000e+000
   O2                    0.000e+000  0.000e+000   -54.841   -54.840     0.001
P               2.002e-014
   H2PO4-                1.975e-014  1.782e-014   -13.704   -13.749    -0.045
   H3PO4                 2.511e-016  2.517e-016   -15.600   -15.599     0.001
   HPO4-2                1.699e-017  1.124e-017   -16.770   -16.949    -0.179
   PO4-3                 1.271e-025  5.022e-026   -24.896   -25.299    -0.403
   (H2PO4)2-2            2.143e-028  1.418e-028   -27.669   -27.848    -0.179
   H2P2O7-2              9.357e-034  6.192e-034   -33.029   -33.208    -0.179
   H3P2O7-               1.308e-035  1.180e-035   -34.883   -34.928    -0.045
   HP2O7-3               3.128e-036  1.235e-036   -35.505   -35.908    -0.403
   H4P2O7                7.427e-039  7.444e-039   -38.129   -38.128     0.001
   P2O7-4                0.000e+000  0.000e+000   -40.601   -41.318    -0.717

------------------------------Saturation indices-------------------------------

	Phase               SI log IAP  log KT

	Fix_pH           -4.00   -4.00    0.00  H+

------------------
End of simulation.
------------------

-------------------------------------
Reading input data for simulation 13.
-------------------------------------

-----------
End of run.
-----------

