   Input file: eq_EC
  Output file: eq_EC.out
Database file: ../database/phreeqc.dat

------------------
Reading data base.
------------------

	SOLUTION_MASTER_SPECIES
	SOLUTION_SPECIES
	PHASES
	EXCHANGE_MASTER_SPECIES
	EXCHANGE_SPECIES
	SURFACE_MASTER_SPECIES
	SURFACE_SPECIES
	RATES
	END
------------------------------------
Reading input data for simulation 1.
------------------------------------

	DATABASE ../database/phreeqc.dat
	PRINT
	 warning 0
	SELECTED_OUTPUT
	 file eq_EC.prn
	 reset false
	USER_PUNCH
	 heading conc eq_EC_25
	 start
	 10 punch tot("Cl"), SC / tot("Cl") /1e3
	 end
	SOLUTION_SPREAD
	 units mol/kgw
	K	Cl	HB Chem Phys
	5.00E-04	1 charge	147.8
	1.00E-03	1 charge	147
	5.00E-03	1 charge	143.3
	1.00E-02	1 charge	141.3
	2.00E-02	1 charge	138.3
	5.00E-02	1 charge	133.4
	1.00E-01	1 charge	129
	END
WARNING: Could not find element in database, HBChemPhys.
	Concentration is set to zero.
-------------------------------------------
Beginning of initial solution calculations.
-------------------------------------------

Initial solution 1.	

-----------------------------Solution composition------------------------------

	Elements           Molality       Moles

	Cl               5.000e-004  5.000e-004  Charge balance
	K                5.000e-004  5.000e-004

----------------------------Description of solution----------------------------

                                       pH  =   7.000    
                                       pe  =   4.000    
       Specific Conductance (uS/cm, 25 oC) = 73
                          Density (g/cm3)  =   0.99707
                        Activity of water  =   1.000
                           Ionic strength  =  5.001e-004
                       Mass of water (kg)  =  1.000e+000
                 Total alkalinity (eq/kg)  =  2.254e-010
                    Total carbon (mol/kg)  =  0.000e+000
                       Total CO2 (mol/kg)  =  0.000e+000
                      Temperature (deg C)  =  25.000
                  Electrical balance (eq)  = -3.188e-019
 Percent error, 100*(Cat-|An|)/(Cat+|An|)  =  -0.00
                               Iterations  =   5
                                  Total H  = 1.110124e+002
                                  Total O  = 5.550622e+001

----------------------------Distribution of species----------------------------

                                                   Log       Log         Log 
   Species                 Molality    Activity  Molality  Activity     Gamma

   OH-                   1.027e-007  1.001e-007    -6.988    -7.000    -0.011
   H+                    1.025e-007  1.000e-007    -6.989    -7.000    -0.011
   H2O                   5.551e+001  1.000e+000     1.744    -0.000     0.000
Cl              5.000e-004
   Cl-                   5.000e-004  4.874e-004    -3.301    -3.312    -0.011
H(0)            1.416e-025
   H2                    7.079e-026  7.079e-026   -25.150   -25.150     0.000
K               5.000e-004
   K+                    5.000e-004  4.874e-004    -3.301    -3.312    -0.011
   KOH                   1.690e-011  1.690e-011   -10.772   -10.772     0.000
O(0)            0.000e+000
   O2                    0.000e+000  0.000e+000   -42.080   -42.080     0.000

------------------------------Saturation indices-------------------------------

	Phase               SI log IAP  log KT

	H2(g)           -22.00  -25.15   -3.15  H2
	H2O(g)           -1.51   -0.00    1.51  H2O
	O2(g)           -39.19  -42.08   -2.89  O2

Initial solution 2.	

-----------------------------Solution composition------------------------------

	Elements           Molality       Moles

	Cl               1.000e-003  1.000e-003  Charge balance
	K                1.000e-003  1.000e-003

----------------------------Description of solution----------------------------

                                       pH  =   7.000    
                                       pe  =   4.000    
       Specific Conductance (uS/cm, 25 oC) = 146
                          Density (g/cm3)  =   0.99710
                        Activity of water  =   1.000
                           Ionic strength  =  1.000e-003
                       Mass of water (kg)  =  1.000e+000
                 Total alkalinity (eq/kg)  =  3.355e-010
                    Total carbon (mol/kg)  =  0.000e+000
                       Total CO2 (mol/kg)  =  0.000e+000
                      Temperature (deg C)  =  25.000
                  Electrical balance (eq)  = -6.630e-017
 Percent error, 100*(Cat-|An|)/(Cat+|An|)  =  -0.00
                               Iterations  =   3
                                  Total H  = 1.110124e+002
                                  Total O  = 5.550622e+001

----------------------------Distribution of species----------------------------

                                                   Log       Log         Log 
   Species                 Molality    Activity  Molality  Activity     Gamma

   OH-                   1.038e-007  1.001e-007    -6.984    -7.000    -0.016
   H+                    1.034e-007  1.000e-007    -6.985    -7.000    -0.015
   H2O                   5.551e+001  1.000e+000     1.744    -0.000     0.000
Cl              1.000e-003
   Cl-                   1.000e-003  9.649e-004    -3.000    -3.016    -0.016
H(0)            1.416e-025
   H2                    7.078e-026  7.079e-026   -25.150   -25.150     0.000
K               1.000e-003
   K+                    1.000e-003  9.649e-004    -3.000    -3.016    -0.016
   KOH                   3.345e-011  3.345e-011   -10.476   -10.476     0.000
O(0)            0.000e+000
   O2                    0.000e+000  0.000e+000   -42.080   -42.080     0.000

------------------------------Saturation indices-------------------------------

	Phase               SI log IAP  log KT

	H2(g)           -22.00  -25.15   -3.15  H2
	H2O(g)           -1.51   -0.00    1.51  H2O
	O2(g)           -39.19  -42.08   -2.89  O2

Initial solution 3.	

-----------------------------Solution composition------------------------------

	Elements           Molality       Moles

	Cl               5.000e-003  5.000e-003  Charge balance
	K                5.000e-003  5.000e-003

----------------------------Description of solution----------------------------

                                       pH  =   7.000    
                                       pe  =   4.000    
       Specific Conductance (uS/cm, 25 oC) = 715
                          Density (g/cm3)  =   0.99729
                        Activity of water  =   1.000
                           Ionic strength  =  5.000e-003
                       Mass of water (kg)  =  1.000e+000
                 Total alkalinity (eq/kg)  =  1.130e-009
                    Total carbon (mol/kg)  =  0.000e+000
                       Total CO2 (mol/kg)  =  0.000e+000
                      Temperature (deg C)  =  25.000
                  Electrical balance (eq)  = -3.528e-012
 Percent error, 100*(Cat-|An|)/(Cat+|An|)  =  -0.00
                               Iterations  =   7
                                  Total H  = 1.110124e+002
                                  Total O  = 5.550622e+001

----------------------------Distribution of species----------------------------

                                                   Log       Log         Log 
   Species                 Molality    Activity  Molality  Activity     Gamma

   OH-                   1.081e-007  1.001e-007    -6.966    -7.000    -0.033
   H+                    1.071e-007  1.000e-007    -6.970    -7.000    -0.030
   H2O                   5.551e+001  9.998e-001     1.744    -0.000     0.000
Cl              5.000e-003
   Cl-                   5.000e-003  4.632e-003    -2.301    -2.334    -0.033
H(0)            1.414e-025
   H2                    7.071e-026  7.079e-026   -25.151   -25.150     0.001
K               5.000e-003
   K+                    5.000e-003  4.632e-003    -2.301    -2.334    -0.033
   KOH                   1.604e-010  1.606e-010    -9.795    -9.794     0.001
O(0)            0.000e+000
   O2                    0.000e+000  0.000e+000   -42.081   -42.080     0.001

------------------------------Saturation indices-------------------------------

	Phase               SI log IAP  log KT

	H2(g)           -22.00  -25.15   -3.15  H2
	H2O(g)           -1.51   -0.00    1.51  H2O
	O2(g)           -39.19  -42.08   -2.89  O2

Initial solution 4.	

-----------------------------Solution composition------------------------------

	Elements           Molality       Moles

	Cl               1.000e-002  1.000e-002  Charge balance
	K                1.000e-002  1.000e-002

----------------------------Description of solution----------------------------

                                       pH  =   7.000    
                                       pe  =   4.000    
       Specific Conductance (uS/cm, 25 oC) = 1407
                          Density (g/cm3)  =   0.99752
                        Activity of water  =   1.000
                           Ionic strength  =  1.000e-002
                       Mass of water (kg)  =  1.000e+000
                 Total alkalinity (eq/kg)  =  2.011e-009
                    Total carbon (mol/kg)  =  0.000e+000
                       Total CO2 (mol/kg)  =  0.000e+000
                      Temperature (deg C)  =  25.000
                  Electrical balance (eq)  = -6.800e-018
 Percent error, 100*(Cat-|An|)/(Cat+|An|)  =  -0.00
                               Iterations  =   8
                                  Total H  = 1.110124e+002
                                  Total O  = 5.550622e+001

----------------------------Distribution of species----------------------------

                                                   Log       Log         Log 
   Species                 Molality    Activity  Molality  Activity     Gamma

   OH-                   1.112e-007  1.001e-007    -6.954    -7.000    -0.046
   H+                    1.095e-007  1.000e-007    -6.961    -7.000    -0.039
   H2O                   5.551e+001  9.997e-001     1.744    -0.000     0.000
Cl              1.000e-002
   Cl-                   1.000e-002  9.005e-003    -2.000    -2.046    -0.046
H(0)            1.413e-025
   H2                    7.063e-026  7.079e-026   -25.151   -25.150     0.001
K               1.000e-002
   K+                    1.000e-002  9.005e-003    -2.000    -2.046    -0.046
   KOH                   3.114e-010  3.121e-010    -9.507    -9.506     0.001
O(0)            0.000e+000
   O2                    0.000e+000  0.000e+000   -42.081   -42.080     0.001

------------------------------Saturation indices-------------------------------

	Phase               SI log IAP  log KT

	H2(g)           -22.00  -25.15   -3.15  H2
	H2O(g)           -1.51   -0.00    1.51  H2O
	O2(g)           -39.19  -42.08   -2.89  O2

Initial solution 5.	

-----------------------------Solution composition------------------------------

	Elements           Molality       Moles

	Cl               2.000e-002  2.000e-002  Charge balance
	K                2.000e-002  2.000e-002

----------------------------Description of solution----------------------------

                                       pH  =   7.000    
                                       pe  =   4.000    
       Specific Conductance (uS/cm, 25 oC) = 2752
                          Density (g/cm3)  =   0.99800
                        Activity of water  =   0.999
                           Ionic strength  =  2.000e-002
                       Mass of water (kg)  =  1.000e+000
                 Total alkalinity (eq/kg)  =  3.570e-009
                    Total carbon (mol/kg)  =  0.000e+000
                       Total CO2 (mol/kg)  =  0.000e+000
                      Temperature (deg C)  =  25.000
                  Electrical balance (eq)  = -3.562e-015
 Percent error, 100*(Cat-|An|)/(Cat+|An|)  =  -0.00
                               Iterations  =   7
                                  Total H  = 1.110124e+002
                                  Total O  = 5.550622e+001

----------------------------Distribution of species----------------------------

                                                   Log       Log         Log 
   Species                 Molality    Activity  Molality  Activity     Gamma

   OH-                   1.154e-007  1.000e-007    -6.938    -7.000    -0.062
   H+                    1.124e-007  1.000e-007    -6.949    -7.000    -0.051
   H2O                   5.551e+001  9.993e-001     1.744    -0.000     0.000
Cl              2.000e-002
   Cl-                   2.000e-002  1.735e-002    -1.699    -1.761    -0.062
H(0)            1.409e-025
   H2                    7.047e-026  7.079e-026   -25.152   -25.150     0.002
K               2.000e-002
   K+                    2.000e-002  1.735e-002    -1.699    -1.761    -0.062
   KOH                   5.985e-010  6.013e-010    -9.223    -9.221     0.002
O(0)            0.000e+000
   O2                    0.000e+000  0.000e+000   -42.083   -42.081     0.002

------------------------------Saturation indices-------------------------------

	Phase               SI log IAP  log KT

	H2(g)           -22.00  -25.15   -3.15  H2
	H2O(g)           -1.51   -0.00    1.51  H2O
	O2(g)           -39.19  -42.08   -2.89  O2

Initial solution 6.	

-----------------------------Solution composition------------------------------

	Elements           Molality       Moles

	Cl               5.000e-002  5.000e-002  Charge balance
	K                5.000e-002  5.000e-002

----------------------------Description of solution----------------------------

                                       pH  =   7.000    
                                       pe  =   4.000    
       Specific Conductance (uS/cm, 25 oC) = 6618
                          Density (g/cm3)  =   0.99941
                        Activity of water  =   0.998
                           Ionic strength  =  5.000e-002
                       Mass of water (kg)  =  1.000e+000
                 Total alkalinity (eq/kg)  =  7.408e-009
                    Total carbon (mol/kg)  =  0.000e+000
                       Total CO2 (mol/kg)  =  0.000e+000
                      Temperature (deg C)  =  25.000
                  Electrical balance (eq)  = -7.631e-015
 Percent error, 100*(Cat-|An|)/(Cat+|An|)  =  -0.00
                               Iterations  =   6
                                  Total H  = 1.110124e+002
                                  Total O  = 5.550622e+001

----------------------------Distribution of species----------------------------

                                                   Log       Log         Log 
   Species                 Molality    Activity  Molality  Activity     Gamma

   OH-                   1.231e-007  9.994e-008    -6.910    -7.000    -0.091
   H+                    1.171e-007  1.000e-007    -6.931    -7.000    -0.069
   H2O                   5.551e+001  9.983e-001     1.744    -0.001     0.000
Cl              5.000e-002
   Cl-                   5.000e-002  4.066e-002    -1.301    -1.391    -0.090
H(0)            1.400e-025
   H2                    6.998e-026  7.079e-026   -25.155   -25.150     0.005
K               5.000e-002
   K+                    5.000e-002  4.066e-002    -1.301    -1.391    -0.090
   KOH                   1.391e-009  1.407e-009    -8.857    -8.852     0.005
O(0)            0.000e+000
   O2                    0.000e+000  0.000e+000   -42.086   -42.081     0.005

------------------------------Saturation indices-------------------------------

	Phase               SI log IAP  log KT

	H2(g)           -22.00  -25.15   -3.15  H2
	H2O(g)           -1.51   -0.00    1.51  H2O
	O2(g)           -39.19  -42.08   -2.89  O2

Initial solution 7.	

-----------------------------Solution composition------------------------------

	Elements           Molality       Moles

	Cl               1.000e-001  1.000e-001  Charge balance
	K                1.000e-001  1.000e-001

----------------------------Description of solution----------------------------

                                       pH  =   7.000    
                                       pe  =   4.000    
       Specific Conductance (uS/cm, 25 oC) = 12755
                          Density (g/cm3)  =   1.00174
                        Activity of water  =   0.997
                           Ionic strength  =  1.000e-001
                       Mass of water (kg)  =  1.000e+000
                 Total alkalinity (eq/kg)  =  1.240e-008
                    Total carbon (mol/kg)  =  0.000e+000
                       Total CO2 (mol/kg)  =  0.000e+000
                      Temperature (deg C)  =  25.000
                  Electrical balance (eq)  = -2.063e-013
 Percent error, 100*(Cat-|An|)/(Cat+|An|)  =  -0.00
                               Iterations  =   5
                                  Total H  = 1.110124e+002
                                  Total O  = 5.550622e+001

----------------------------Distribution of species----------------------------

                                                   Log       Log         Log 
   Species                 Molality    Activity  Molality  Activity     Gamma

   OH-                   1.310e-007  9.977e-008    -6.883    -7.001    -0.118
   H+                    1.211e-007  1.000e-007    -6.917    -7.000    -0.083
   H2O                   5.551e+001  9.966e-001     1.744    -0.001     0.000
Cl              1.000e-001
   Cl-                   1.000e-001  7.645e-002    -1.000    -1.117    -0.117
H(0)            1.384e-025
   H2                    6.918e-026  7.079e-026   -25.160   -25.150     0.010
K               1.000e-001
   K+                    1.000e-001  7.645e-002    -1.000    -1.117    -0.117
   KOH                   2.582e-009  2.642e-009    -8.588    -8.578     0.010
O(0)            0.000e+000
   O2                    0.000e+000  0.000e+000   -42.093   -42.083     0.010

------------------------------Saturation indices-------------------------------

	Phase               SI log IAP  log KT

	H2(g)           -22.00  -25.15   -3.15  H2
	H2O(g)           -1.51   -0.00    1.51  H2O
	O2(g)           -39.19  -42.08   -2.89  O2

------------------
End of simulation.
------------------

------------------------------------
Reading input data for simulation 2.
------------------------------------

	SOLUTION_SPREAD
	 units mol/kgw
	Na	Cl	HB Chem Phys
	5.00E-04	1 charge	124.5
	1.00E-03	1 charge	123.7
	5.00E-03	1 charge	120.6
	1.00E-02	1 charge	118.5
	2.00E-02	1 charge	115.5
	5.00E-02	1 charge	111.1
	1.00E-01	1 charge	106.7
	END
WARNING: Could not find element in database, HBChemPhys.
	Concentration is set to zero.
-------------------------------------------
Beginning of initial solution calculations.
-------------------------------------------

Initial solution 8.	

-----------------------------Solution composition------------------------------

	Elements           Molality       Moles

	Cl               5.000e-004  5.000e-004  Charge balance
	Na               5.000e-004  5.000e-004

----------------------------Description of solution----------------------------

                                       pH  =   7.000    
                                       pe  =   4.000    
       Specific Conductance (uS/cm, 25 oC) = 62
                          Density (g/cm3)  =   0.99707
                        Activity of water  =   1.000
                           Ionic strength  =  5.001e-004
                       Mass of water (kg)  =  1.000e+000
                 Total alkalinity (eq/kg)  =  2.407e-010
                    Total carbon (mol/kg)  =  0.000e+000
                       Total CO2 (mol/kg)  =  0.000e+000
                      Temperature (deg C)  =  25.000
                  Electrical balance (eq)  = -2.032e-019
 Percent error, 100*(Cat-|An|)/(Cat+|An|)  =  -0.00
                               Iterations  =   5
                                  Total H  = 1.110124e+002
                                  Total O  = 5.550622e+001

----------------------------Distribution of species----------------------------

                                                   Log       Log         Log 
   Species                 Molality    Activity  Molality  Activity     Gamma

   OH-                   1.027e-007  1.001e-007    -6.988    -7.000    -0.011
   H+                    1.025e-007  1.000e-007    -6.989    -7.000    -0.011
   H2O                   5.551e+001  1.000e+000     1.744    -0.000     0.000
Cl              5.000e-004
   Cl-                   5.000e-004  4.874e-004    -3.301    -3.312    -0.011
H(0)            1.416e-025
   H2                    7.079e-026  7.079e-026   -25.150   -25.150     0.000
Na              5.000e-004
   Na+                   5.000e-004  4.875e-004    -3.301    -3.312    -0.011
   NaOH                  3.220e-011  3.221e-011   -10.492   -10.492     0.000
O(0)            0.000e+000
   O2                    0.000e+000  0.000e+000   -42.080   -42.080     0.000

------------------------------Saturation indices-------------------------------

	Phase               SI log IAP  log KT

	H2(g)           -22.00  -25.15   -3.15  H2
	H2O(g)           -1.51   -0.00    1.51  H2O
	Halite           -8.21   -6.62    1.58  NaCl
	O2(g)           -39.19  -42.08   -2.89  O2

Initial solution 9.	

-----------------------------Solution composition------------------------------

	Elements           Molality       Moles

	Cl               1.000e-003  1.000e-003  Charge balance
	Na               1.000e-003  1.000e-003

----------------------------Description of solution----------------------------

                                       pH  =   7.000    
                                       pe  =   4.000    
       Specific Conductance (uS/cm, 25 oC) = 123
                          Density (g/cm3)  =   0.99709
                        Activity of water  =   1.000
                           Ionic strength  =  1.000e-003
                       Mass of water (kg)  =  1.000e+000
                 Total alkalinity (eq/kg)  =  3.658e-010
                    Total carbon (mol/kg)  =  0.000e+000
                       Total CO2 (mol/kg)  =  0.000e+000
                      Temperature (deg C)  =  25.000
                  Electrical balance (eq)  = -1.073e-013
 Percent error, 100*(Cat-|An|)/(Cat+|An|)  =  -0.00
                               Iterations  =   3
                                  Total H  = 1.110124e+002
                                  Total O  = 5.550622e+001

----------------------------Distribution of species----------------------------

                                                   Log       Log         Log 
   Species                 Molality    Activity  Molality  Activity     Gamma

   OH-                   1.038e-007  1.001e-007    -6.984    -7.000    -0.016
   H+                    1.034e-007  1.000e-007    -6.985    -7.000    -0.015
   H2O                   5.551e+001  1.000e+000     1.744    -0.000     0.000
Cl              1.000e-003
   Cl-                   1.000e-003  9.649e-004    -3.000    -3.016    -0.016
H(0)            1.416e-025
   H2                    7.078e-026  7.079e-026   -25.150   -25.150     0.000
Na              1.000e-003
   Na+                   1.000e-003  9.652e-004    -3.000    -3.015    -0.015
   NaOH                  6.375e-011  6.377e-011   -10.196   -10.195     0.000
O(0)            0.000e+000
   O2                    0.000e+000  0.000e+000   -42.080   -42.080     0.000

------------------------------Saturation indices-------------------------------

	Phase               SI log IAP  log KT

	H2(g)           -22.00  -25.15   -3.15  H2
	H2O(g)           -1.51   -0.00    1.51  H2O
	Halite           -7.61   -6.03    1.58  NaCl
	O2(g)           -39.19  -42.08   -2.89  O2

Initial solution 10.	

-----------------------------Solution composition------------------------------

	Elements           Molality       Moles

	Cl               5.000e-003  5.000e-003  Charge balance
	Na               5.000e-003  5.000e-003

----------------------------Description of solution----------------------------

                                       pH  =   7.000    
                                       pe  =   4.000    
       Specific Conductance (uS/cm, 25 oC) = 602
                          Density (g/cm3)  =   0.99726
                        Activity of water  =   1.000
                           Ionic strength  =  5.000e-003
                       Mass of water (kg)  =  1.000e+000
                 Total alkalinity (eq/kg)  =  1.275e-009
                    Total carbon (mol/kg)  =  0.000e+000
                       Total CO2 (mol/kg)  =  0.000e+000
                      Temperature (deg C)  =  25.000
                  Electrical balance (eq)  = -3.527e-012
 Percent error, 100*(Cat-|An|)/(Cat+|An|)  =  -0.00
                               Iterations  =   7
                                  Total H  = 1.110124e+002
                                  Total O  = 5.550622e+001

----------------------------Distribution of species----------------------------

                                                   Log       Log         Log 
   Species                 Molality    Activity  Molality  Activity     Gamma

   OH-                   1.081e-007  1.001e-007    -6.966    -7.000    -0.033
   H+                    1.071e-007  1.000e-007    -6.970    -7.000    -0.030
   H2O                   5.551e+001  9.998e-001     1.744    -0.000     0.000
Cl              5.000e-003
   Cl-                   5.000e-003  4.632e-003    -2.301    -2.334    -0.033
H(0)            1.414e-025
   H2                    7.071e-026  7.079e-026   -25.151   -25.150     0.001
Na              5.000e-003
   Na+                   5.000e-003  4.639e-003    -2.301    -2.334    -0.033
   NaOH                  3.061e-010  3.064e-010    -9.514    -9.514     0.001
O(0)            0.000e+000
   O2                    0.000e+000  0.000e+000   -42.081   -42.080     0.001

------------------------------Saturation indices-------------------------------

	Phase               SI log IAP  log KT

	H2(g)           -22.00  -25.15   -3.15  H2
	H2O(g)           -1.51   -0.00    1.51  H2O
	Halite           -6.25   -4.67    1.58  NaCl
	O2(g)           -39.19  -42.08   -2.89  O2

Initial solution 11.	

-----------------------------Solution composition------------------------------

	Elements           Molality       Moles

	Cl               1.000e-002  1.000e-002  Charge balance
	Na               1.000e-002  1.000e-002

----------------------------Description of solution----------------------------

                                       pH  =   7.000    
                                       pe  =   4.000    
       Specific Conductance (uS/cm, 25 oC) = 1185
                          Density (g/cm3)  =   0.99746
                        Activity of water  =   1.000
                           Ionic strength  =  1.000e-002
                       Mass of water (kg)  =  1.000e+000
                 Total alkalinity (eq/kg)  =  2.294e-009
                    Total carbon (mol/kg)  =  0.000e+000
                       Total CO2 (mol/kg)  =  0.000e+000
                      Temperature (deg C)  =  25.000
                  Electrical balance (eq)  = -6.013e-018
 Percent error, 100*(Cat-|An|)/(Cat+|An|)  =  -0.00
                               Iterations  =   8
                                  Total H  = 1.110124e+002
                                  Total O  = 5.550622e+001

----------------------------Distribution of species----------------------------

                                                   Log       Log         Log 
   Species                 Molality    Activity  Molality  Activity     Gamma

   OH-                   1.112e-007  1.001e-007    -6.954    -7.000    -0.046
   H+                    1.095e-007  1.000e-007    -6.961    -7.000    -0.039
   H2O                   5.551e+001  9.997e-001     1.744    -0.000     0.000
Cl              1.000e-002
   Cl-                   1.000e-002  9.005e-003    -2.000    -2.046    -0.046
H(0)            1.413e-025
   H2                    7.063e-026  7.079e-026   -25.151   -25.150     0.001
Na              1.000e-002
   Na+                   1.000e-002  9.031e-003    -2.000    -2.044    -0.044
   NaOH                  5.951e-010  5.965e-010    -9.225    -9.224     0.001
O(0)            0.000e+000
   O2                    0.000e+000  0.000e+000   -42.081   -42.080     0.001

------------------------------Saturation indices-------------------------------

	Phase               SI log IAP  log KT

	H2(g)           -22.00  -25.15   -3.15  H2
	H2O(g)           -1.51   -0.00    1.51  H2O
	Halite           -5.67   -4.09    1.58  NaCl
	O2(g)           -39.19  -42.08   -2.89  O2

Initial solution 12.	

-----------------------------Solution composition------------------------------

	Elements           Molality       Moles

	Cl               2.000e-002  2.000e-002  Charge balance
	Na               2.000e-002  2.000e-002

----------------------------Description of solution----------------------------

                                       pH  =   7.000    
                                       pe  =   4.000    
       Specific Conductance (uS/cm, 25 oC) = 2320
                          Density (g/cm3)  =   0.99788
                        Activity of water  =   0.999
                           Ionic strength  =  2.000e-002
                       Mass of water (kg)  =  1.000e+000
                 Total alkalinity (eq/kg)  =  4.119e-009
                    Total carbon (mol/kg)  =  0.000e+000
                       Total CO2 (mol/kg)  =  0.000e+000
                      Temperature (deg C)  =  25.000
                  Electrical balance (eq)  = -3.570e-015
 Percent error, 100*(Cat-|An|)/(Cat+|An|)  =  -0.00
                               Iterations  =   7
                                  Total H  = 1.110124e+002
                                  Total O  = 5.550622e+001

----------------------------Distribution of species----------------------------

                                                   Log       Log         Log 
   Species                 Molality    Activity  Molality  Activity     Gamma

   OH-                   1.154e-007  1.000e-007    -6.938    -7.000    -0.062
   H+                    1.124e-007  1.000e-007    -6.949    -7.000    -0.051
   H2O                   5.551e+001  9.993e-001     1.744    -0.000     0.000
Cl              2.000e-002
   Cl-                   2.000e-002  1.735e-002    -1.699    -1.761    -0.062
H(0)            1.409e-025
   H2                    7.047e-026  7.079e-026   -25.152   -25.150     0.002
Na              2.000e-002
   Na+                   2.000e-002  1.745e-002    -1.699    -1.758    -0.059
   NaOH                  1.147e-009  1.152e-009    -8.941    -8.939     0.002
O(0)            0.000e+000
   O2                    0.000e+000  0.000e+000   -42.083   -42.081     0.002

------------------------------Saturation indices-------------------------------

	Phase               SI log IAP  log KT

	H2(g)           -22.00  -25.15   -3.15  H2
	H2O(g)           -1.51   -0.00    1.51  H2O
	Halite           -5.10   -3.52    1.58  NaCl
	O2(g)           -39.19  -42.08   -2.89  O2

Initial solution 13.	

-----------------------------Solution composition------------------------------

	Elements           Molality       Moles

	Cl               5.000e-002  5.000e-002  Charge balance
	Na               5.000e-002  5.000e-002

----------------------------Description of solution----------------------------

                                       pH  =   7.000    
                                       pe  =   4.000    
       Specific Conductance (uS/cm, 25 oC) = 5590
                          Density (g/cm3)  =   0.99911
                        Activity of water  =   0.998
                           Ionic strength  =  5.000e-002
                       Mass of water (kg)  =  1.000e+000
                 Total alkalinity (eq/kg)  =  8.702e-009
                    Total carbon (mol/kg)  =  0.000e+000
                       Total CO2 (mol/kg)  =  0.000e+000
                      Temperature (deg C)  =  25.000
                  Electrical balance (eq)  = -7.674e-015
 Percent error, 100*(Cat-|An|)/(Cat+|An|)  =  -0.00
                               Iterations  =   6
                                  Total H  = 1.110124e+002
                                  Total O  = 5.550622e+001

----------------------------Distribution of species----------------------------

                                                   Log       Log         Log 
   Species                 Molality    Activity  Molality  Activity     Gamma

   OH-                   1.231e-007  9.994e-008    -6.910    -7.000    -0.091
   H+                    1.171e-007  1.000e-007    -6.931    -7.000    -0.069
   H2O                   5.551e+001  9.983e-001     1.744    -0.001     0.000
Cl              5.000e-002
   Cl-                   5.000e-002  4.066e-002    -1.301    -1.391    -0.090
H(0)            1.400e-025
   H2                    6.998e-026  7.079e-026   -25.155   -25.150     0.005
Na              5.000e-002
   Na+                   5.000e-002  4.118e-002    -1.301    -1.385    -0.084
   NaOH                  2.685e-009  2.716e-009    -8.571    -8.566     0.005
O(0)            0.000e+000
   O2                    0.000e+000  0.000e+000   -42.086   -42.081     0.005

------------------------------Saturation indices-------------------------------

	Phase               SI log IAP  log KT

	H2(g)           -22.00  -25.15   -3.15  H2
	H2O(g)           -1.51   -0.00    1.51  H2O
	Halite           -4.36   -2.78    1.58  NaCl
	O2(g)           -39.19  -42.08   -2.89  O2

Initial solution 14.	

-----------------------------Solution composition------------------------------

	Elements           Molality       Moles

	Cl               1.000e-001  1.000e-001  Charge balance
	Na               1.000e-001  1.000e-001

----------------------------Description of solution----------------------------

                                       pH  =   7.000    
                                       pe  =   4.000    
       Specific Conductance (uS/cm, 25 oC) = 10802
                          Density (g/cm3)  =   1.00116
                        Activity of water  =   0.997
                           Ionic strength  =  1.000e-001
                       Mass of water (kg)  =  1.000e+000
                 Total alkalinity (eq/kg)  =  1.486e-008
                    Total carbon (mol/kg)  =  0.000e+000
                       Total CO2 (mol/kg)  =  0.000e+000
                      Temperature (deg C)  =  25.000
                  Electrical balance (eq)  = -2.271e-013
 Percent error, 100*(Cat-|An|)/(Cat+|An|)  =  -0.00
                               Iterations  =   5
                                  Total H  = 1.110124e+002
                                  Total O  = 5.550622e+001

----------------------------Distribution of species----------------------------

                                                   Log       Log         Log 
   Species                 Molality    Activity  Molality  Activity     Gamma

   OH-                   1.310e-007  9.977e-008    -6.883    -7.001    -0.118
   H+                    1.211e-007  1.000e-007    -6.917    -7.000    -0.083
   H2O                   5.551e+001  9.966e-001     1.744    -0.001     0.000
Cl              1.000e-001
   Cl-                   1.000e-001  7.645e-002    -1.000    -1.117    -0.117
H(0)            1.384e-025
   H2                    6.918e-026  7.079e-026   -25.160   -25.150     0.010
Na              1.000e-001
   Na+                   1.000e-001  7.829e-002    -1.000    -1.106    -0.106
   NaOH                  5.038e-009  5.155e-009    -8.298    -8.288     0.010
O(0)            0.000e+000
   O2                    0.000e+000  0.000e+000   -42.093   -42.083     0.010

------------------------------Saturation indices-------------------------------

	Phase               SI log IAP  log KT

	H2(g)           -22.00  -25.15   -3.15  H2
	H2O(g)           -1.51   -0.00    1.51  H2O
	Halite           -3.80   -2.22    1.58  NaCl
	O2(g)           -39.19  -42.08   -2.89  O2

------------------
End of simulation.
------------------

------------------------------------
Reading input data for simulation 3.
------------------------------------

	SOLUTION_SPREAD
	 units mol/kgw
	Cl	pH	HB Chem Phys
	5.00E-04	1 charge	4.23E+02
	1.00E-03	1 charge	4.21E+02
	5.00E-03	1 charge	4.16E+02
	1.00E-02	1 charge	4.12E+02
	2.00E-02	1 charge	4.07E+02
	5.00E-02	1 charge	3.99E+02
	1.00E-01	1 charge	3.91E+02
	END
WARNING: Could not find element in database, HBChemPhys.
	Concentration is set to zero.
-------------------------------------------
Beginning of initial solution calculations.
-------------------------------------------

Initial solution 15.	

-----------------------------Solution composition------------------------------

	Elements           Molality       Moles

	Cl               5.000e-004  5.000e-004

----------------------------Description of solution----------------------------

                                       pH  =   3.312      Charge balance
                                       pe  =   4.000    
       Specific Conductance (uS/cm, 25 oC) = 209
                          Density (g/cm3)  =   0.99706
                        Activity of water  =   1.000
                           Ionic strength  =  5.000e-004
                       Mass of water (kg)  =  1.000e+000
                 Total alkalinity (eq/kg)  = -5.000e-004
                    Total carbon (mol/kg)  =  0.000e+000
                       Total CO2 (mol/kg)  =  0.000e+000
                      Temperature (deg C)  =  25.000
                  Electrical balance (eq)  =  3.759e-020
 Percent error, 100*(Cat-|An|)/(Cat+|An|)  =   0.00
                               Iterations  =  10
                                  Total H  = 1.110129e+002
                                  Total O  = 5.550622e+001

----------------------------Distribution of species----------------------------

                                                   Log       Log         Log 
   Species                 Molality    Activity  Molality  Activity     Gamma

   H+                    5.000e-004  4.879e-004    -3.301    -3.312    -0.011
   OH-                   2.105e-011  2.052e-011   -10.677   -10.688    -0.011
   H2O                   5.551e+001  1.000e+000     1.744    -0.000     0.000
Cl              5.000e-004
   Cl-                   5.000e-004  4.874e-004    -3.301    -3.312    -0.011
H(0)            3.369e-018
   H2                    1.685e-018  1.685e-018   -17.773   -17.773     0.000
O(0)            0.000e+000
   O2                    0.000e+000  0.000e+000   -56.833   -56.833     0.000

------------------------------Saturation indices-------------------------------

	Phase               SI log IAP  log KT

	H2(g)           -14.62  -17.77   -3.15  H2
	H2O(g)           -1.51   -0.00    1.51  H2O
	O2(g)           -53.94  -56.83   -2.89  O2

Initial solution 16.	

-----------------------------Solution composition------------------------------

	Elements           Molality       Moles

	Cl               1.000e-003  1.000e-003

----------------------------Description of solution----------------------------

                                       pH  =   3.015      Charge balance
                                       pe  =   4.000    
       Specific Conductance (uS/cm, 25 oC) = 417
                          Density (g/cm3)  =   0.99707
                        Activity of water  =   1.000
                           Ionic strength  =  1.000e-003
                       Mass of water (kg)  =  1.000e+000
                 Total alkalinity (eq/kg)  = -1.000e-003
                    Total carbon (mol/kg)  =  0.000e+000
                       Total CO2 (mol/kg)  =  0.000e+000
                      Temperature (deg C)  =  25.000
                  Electrical balance (eq)  =  3.567e-016
 Percent error, 100*(Cat-|An|)/(Cat+|An|)  =   0.00
                               Iterations  =   9
                                  Total H  = 1.110134e+002
                                  Total O  = 5.550622e+001

----------------------------Distribution of species----------------------------

                                                   Log       Log         Log 
   Species                 Molality    Activity  Molality  Activity     Gamma

   H+                    1.000e-003  9.667e-004    -3.000    -3.015    -0.015
   OH-                   1.073e-011  1.036e-011   -10.969   -10.985    -0.016
   H2O                   5.551e+001  1.000e+000     1.744    -0.000     0.000
Cl              1.000e-003
   Cl-                   1.000e-003  9.649e-004    -3.000    -3.016    -0.016
H(0)            1.323e-017
   H2                    6.614e-018  6.615e-018   -17.180   -17.179     0.000
O(0)            0.000e+000
   O2                    0.000e+000  0.000e+000   -58.021   -58.021     0.000

------------------------------Saturation indices-------------------------------

	Phase               SI log IAP  log KT

	H2(g)           -14.03  -17.18   -3.15  H2
	H2O(g)           -1.51   -0.00    1.51  H2O
	O2(g)           -55.13  -58.02   -2.89  O2

Initial solution 17.	

-----------------------------Solution composition------------------------------

	Elements           Molality       Moles

	Cl               5.000e-003  5.000e-003

----------------------------Description of solution----------------------------

                                       pH  =   2.331      Charge balance
                                       pe  =   4.000    
       Specific Conductance (uS/cm, 25 oC) = 2041
                          Density (g/cm3)  =   0.99714
                        Activity of water  =   1.000
                           Ionic strength  =  5.000e-003
                       Mass of water (kg)  =  1.000e+000
                 Total alkalinity (eq/kg)  = -5.000e-003
                    Total carbon (mol/kg)  =  0.000e+000
                       Total CO2 (mol/kg)  =  0.000e+000
                      Temperature (deg C)  =  25.000
                  Electrical balance (eq)  =  2.133e-012
 Percent error, 100*(Cat-|An|)/(Cat+|An|)  =   0.00
                               Iterations  =   7
                                  Total H  = 1.110174e+002
                                  Total O  = 5.550622e+001

----------------------------Distribution of species----------------------------

                                                   Log       Log         Log 
   Species                 Molality    Activity  Molality  Activity     Gamma

   H+                    5.000e-003  4.669e-003    -2.301    -2.331    -0.030
   OH-                   2.315e-012  2.144e-012   -11.635   -11.669    -0.033
   H2O                   5.551e+001  9.998e-001     1.744    -0.000     0.000
Cl              5.000e-003
   Cl-                   5.000e-003  4.632e-003    -2.301    -2.334    -0.033
H(0)            3.082e-016
   H2                    1.541e-016  1.543e-016   -15.812   -15.812     0.001
O(0)            0.000e+000
   O2                    0.000e+000  0.000e+000   -60.757   -60.757     0.001

------------------------------Saturation indices-------------------------------

	Phase               SI log IAP  log KT

	H2(g)           -12.66  -15.81   -3.15  H2
	H2O(g)           -1.51   -0.00    1.51  H2O
	O2(g)           -57.86  -60.76   -2.89  O2

Initial solution 18.	

-----------------------------Solution composition------------------------------

	Elements           Molality       Moles

	Cl               1.000e-002  1.000e-002

----------------------------Description of solution----------------------------

                                       pH  =   2.039      Charge balance
                                       pe  =   4.000    
       Specific Conductance (uS/cm, 25 oC) = 4027
                          Density (g/cm3)  =   0.99722
                        Activity of water  =   1.000
                           Ionic strength  =  1.000e-002
                       Mass of water (kg)  =  1.000e+000
                 Total alkalinity (eq/kg)  = -1.000e-002
                    Total carbon (mol/kg)  =  0.000e+000
                       Total CO2 (mol/kg)  =  0.000e+000
                      Temperature (deg C)  =  25.000
                  Electrical balance (eq)  = -2.511e-020
 Percent error, 100*(Cat-|An|)/(Cat+|An|)  =  -0.00
                               Iterations  =   7
                                  Total H  = 1.110224e+002
                                  Total O  = 5.550622e+001

----------------------------Distribution of species----------------------------

                                                   Log       Log         Log 
   Species                 Molality    Activity  Molality  Activity     Gamma

   H+                    1.000e-002  9.135e-003    -2.000    -2.039    -0.039
   OH-                   1.217e-012  1.096e-012   -11.915   -11.960    -0.046
   H2O                   5.551e+001  9.997e-001     1.744    -0.000     0.000
Cl              1.000e-002
   Cl-                   1.000e-002  9.005e-003    -2.000    -2.046    -0.046
H(0)            1.179e-015
   H2                    5.893e-016  5.907e-016   -15.230   -15.229     0.001
O(0)            0.000e+000
   O2                    0.000e+000  0.000e+000   -61.924   -61.923     0.001

------------------------------Saturation indices-------------------------------

	Phase               SI log IAP  log KT

	H2(g)           -12.08  -15.23   -3.15  H2
	H2O(g)           -1.51   -0.00    1.51  H2O
	O2(g)           -59.03  -61.92   -2.89  O2

Initial solution 19.	

-----------------------------Solution composition------------------------------

	Elements           Molality       Moles

	Cl               2.000e-002  2.000e-002

----------------------------Description of solution----------------------------

                                       pH  =   1.750      Charge balance
                                       pe  =   4.000    
       Specific Conductance (uS/cm, 25 oC) = 7919
                          Density (g/cm3)  =   0.99740
                        Activity of water  =   0.999
                           Ionic strength  =  2.000e-002
                       Mass of water (kg)  =  1.000e+000
                 Total alkalinity (eq/kg)  = -2.000e-002
                    Total carbon (mol/kg)  =  0.000e+000
                       Total CO2 (mol/kg)  =  0.000e+000
                      Temperature (deg C)  =  25.000
                  Electrical balance (eq)  =  3.391e-015
 Percent error, 100*(Cat-|An|)/(Cat+|An|)  =   0.00
                               Iterations  =   6
                                  Total H  = 1.110324e+002
                                  Total O  = 5.550622e+001

----------------------------Distribution of species----------------------------

                                                   Log       Log         Log 
   Species                 Molality    Activity  Molality  Activity     Gamma

   H+                    2.000e-002  1.779e-002    -1.699    -1.750    -0.051
   OH-                   6.485e-013  5.623e-013   -12.188   -12.250    -0.062
   H2O                   5.551e+001  9.993e-001     1.744    -0.000     0.000
Cl              2.000e-002
   Cl-                   2.000e-002  1.735e-002    -1.699    -1.761    -0.062
H(0)            4.462e-015
   H2                    2.231e-015  2.241e-015   -14.652   -14.650     0.002
O(0)            0.000e+000
   O2                    0.000e+000  0.000e+000   -63.084   -63.082     0.002

------------------------------Saturation indices-------------------------------

	Phase               SI log IAP  log KT

	H2(g)           -11.50  -14.65   -3.15  H2
	H2O(g)           -1.51   -0.00    1.51  H2O
	O2(g)           -60.19  -63.08   -2.89  O2

Initial solution 20.	

-----------------------------Solution composition------------------------------

	Elements           Molality       Moles

	Cl               5.000e-002  5.000e-002

----------------------------Description of solution----------------------------

                                       pH  =   1.370      Charge balance
                                       pe  =   4.000    
       Specific Conductance (uS/cm, 25 oC) = 19269
                          Density (g/cm3)  =   0.99792
                        Activity of water  =   0.998
                           Ionic strength  =  5.000e-002
                       Mass of water (kg)  =  1.000e+000
                 Total alkalinity (eq/kg)  = -5.000e-002
                    Total carbon (mol/kg)  =  0.000e+000
                       Total CO2 (mol/kg)  =  0.000e+000
                      Temperature (deg C)  =  25.000
                  Electrical balance (eq)  =  1.169e-015
 Percent error, 100*(Cat-|An|)/(Cat+|An|)  =   0.00
                               Iterations  =   5
                                  Total H  = 1.110624e+002
                                  Total O  = 5.550622e+001

----------------------------Distribution of species----------------------------

                                                   Log       Log         Log 
   Species                 Molality    Activity  Molality  Activity     Gamma

   H+                    5.000e-002  4.270e-002    -1.301    -1.370    -0.069
   OH-                   2.884e-013  2.341e-013   -12.540   -12.631    -0.091
   H2O                   5.551e+001  9.983e-001     1.744    -0.001     0.000
Cl              5.000e-002
   Cl-                   5.000e-002  4.066e-002    -1.301    -1.391    -0.090
H(0)            2.552e-014
   H2                    1.276e-014  1.291e-014   -13.894   -13.889     0.005
O(0)            0.000e+000
   O2                    0.000e+000  0.000e+000   -64.608   -64.603     0.005

------------------------------Saturation indices-------------------------------

	Phase               SI log IAP  log KT

	H2(g)           -10.74  -13.89   -3.15  H2
	H2O(g)           -1.51   -0.00    1.51  H2O
	O2(g)           -61.71  -64.60   -2.89  O2

Initial solution 21.	

-----------------------------Solution composition------------------------------

	Elements           Molality       Moles

	Cl               1.000e-001  1.000e-001

----------------------------Description of solution----------------------------

                                       pH  =   1.083      Charge balance
                                       pe  =   4.000    
       Specific Conductance (uS/cm, 25 oC) = 37656
                          Density (g/cm3)  =   0.99879
                        Activity of water  =   0.997
                           Ionic strength  =  1.000e-001
                       Mass of water (kg)  =  1.000e+000
                 Total alkalinity (eq/kg)  = -1.000e-001
                    Total carbon (mol/kg)  =  0.000e+000
                       Total CO2 (mol/kg)  =  0.000e+000
                      Temperature (deg C)  =  25.000
                  Electrical balance (eq)  = -1.717e-016
 Percent error, 100*(Cat-|An|)/(Cat+|An|)  =  -0.00
                               Iterations  =   4
                                  Total H  = 1.111124e+002
                                  Total O  = 5.550622e+001

----------------------------Distribution of species----------------------------

                                                   Log       Log         Log 
   Species                 Molality    Activity  Molality  Activity     Gamma

   H+                    1.000e-001  8.255e-002    -1.000    -1.083    -0.083
   OH-                   1.586e-013  1.209e-013   -12.800   -12.918    -0.118
   H2O                   5.551e+001  9.966e-001     1.744    -0.001     0.000
Cl              1.000e-001
   Cl-                   1.000e-001  7.645e-002    -1.000    -1.117    -0.117
H(0)            9.430e-014
   H2                    4.715e-014  4.825e-014   -13.327   -13.317     0.010
O(0)            0.000e+000
   O2                    0.000e+000  0.000e+000   -65.760   -65.750     0.010

------------------------------Saturation indices-------------------------------

	Phase               SI log IAP  log KT

	H2(g)           -10.17  -13.32   -3.15  H2
	H2O(g)           -1.51   -0.00    1.51  H2O
	O2(g)           -62.86  -65.75   -2.89  O2

------------------
End of simulation.
------------------

------------------------------------
Reading input data for simulation 4.
------------------------------------

	SOLUTION_SPREAD
	 units mol/kgw
	Cl	Ca	HB Chem Phys
	5.00E-04	1 charge	1.32E+02
	1.00E-03	1 charge	1.30E+02
	5.00E-03	1 charge	1.24E+02
	1.00E-02	1 charge	1.20E+02
	2.00E-02	1 charge	1.16E+02
	5.00E-02	1 charge	1.09E+02
	1.00E-01	1 charge	1.02E+02
	END
WARNING: Could not find element in database, HBChemPhys.
	Concentration is set to zero.
-------------------------------------------
Beginning of initial solution calculations.
-------------------------------------------

Initial solution 22.	

-----------------------------Solution composition------------------------------

	Elements           Molality       Moles

	Ca               2.500e-004  2.500e-004  Charge balance
	Cl               5.000e-004  5.000e-004

----------------------------Description of solution----------------------------

                                       pH  =   7.000    
                                       pe  =   4.000    
       Specific Conductance (uS/cm, 25 oC) = 65
                          Density (g/cm3)  =   0.99707
                        Activity of water  =   1.000
                           Ionic strength  =  7.501e-004
                       Mass of water (kg)  =  1.000e+000
                 Total alkalinity (eq/kg)  =  6.356e-010
                    Total carbon (mol/kg)  =  0.000e+000
                       Total CO2 (mol/kg)  =  0.000e+000
                      Temperature (deg C)  =  25.000
                  Electrical balance (eq)  =  2.459e-018
 Percent error, 100*(Cat-|An|)/(Cat+|An|)  =   0.00
                               Iterations  =   6
                                  Total H  = 1.110124e+002
                                  Total O  = 5.550622e+001

----------------------------Distribution of species----------------------------

                                                   Log       Log         Log 
   Species                 Molality    Activity  Molality  Activity     Gamma

   OH-                   1.033e-007  1.001e-007    -6.986    -7.000    -0.014
   H+                    1.030e-007  1.000e-007    -6.987    -7.000    -0.013
   H2O                   5.551e+001  1.000e+000     1.744    -0.000     0.000
Ca              2.500e-004
   Ca+2                  2.500e-004  2.211e-004    -3.602    -3.655    -0.053
   CaOH+                 3.786e-010  3.670e-010    -9.422    -9.435    -0.013
Cl              5.000e-004
   Cl-                   5.000e-004  4.847e-004    -3.301    -3.315    -0.014
H(0)            1.416e-025
   H2                    7.078e-026  7.079e-026   -25.150   -25.150     0.000
O(0)            0.000e+000
   O2                    0.000e+000  0.000e+000   -42.080   -42.080     0.000

------------------------------Saturation indices-------------------------------

	Phase               SI log IAP  log KT

	H2(g)           -22.00  -25.15   -3.15  H2
	H2O(g)           -1.51   -0.00    1.51  H2O
	O2(g)           -39.19  -42.08   -2.89  O2

Initial solution 23.	

-----------------------------Solution composition------------------------------

	Elements           Molality       Moles

	Ca               5.000e-004  5.000e-004  Charge balance
	Cl               1.000e-003  1.000e-003

----------------------------Description of solution----------------------------

                                       pH  =   7.000    
                                       pe  =   4.000    
       Specific Conductance (uS/cm, 25 oC) = 129
                          Density (g/cm3)  =   0.99709
                        Activity of water  =   1.000
                           Ionic strength  =  1.500e-003
                       Mass of water (kg)  =  1.000e+000
                 Total alkalinity (eq/kg)  =  1.126e-009
                    Total carbon (mol/kg)  =  0.000e+000
                       Total CO2 (mol/kg)  =  0.000e+000
                      Temperature (deg C)  =  25.000
                  Electrical balance (eq)  =  9.456e-016
 Percent error, 100*(Cat-|An|)/(Cat+|An|)  =   0.00
                               Iterations  =   5
                                  Total H  = 1.110124e+002
                                  Total O  = 5.550622e+001

----------------------------Distribution of species----------------------------

                                                   Log       Log         Log 
   Species                 Molality    Activity  Molality  Activity     Gamma

   OH-                   1.046e-007  1.001e-007    -6.981    -7.000    -0.019
   H+                    1.042e-007  1.000e-007    -6.982    -7.000    -0.018
   H2O                   5.551e+001  1.000e+000     1.744    -0.000     0.000
Ca              5.000e-004
   Ca+2                  5.000e-004  4.217e-004    -3.301    -3.375    -0.074
   CaOH+                 7.308e-010  6.999e-010    -9.136    -9.155    -0.019
Cl              1.000e-003
   Cl-                   1.000e-003  9.575e-004    -3.000    -3.019    -0.019
H(0)            1.415e-025
   H2                    7.077e-026  7.079e-026   -25.150   -25.150     0.000
O(0)            0.000e+000
   O2                    0.000e+000  0.000e+000   -42.080   -42.080     0.000

------------------------------Saturation indices-------------------------------

	Phase               SI log IAP  log KT

	H2(g)           -22.00  -25.15   -3.15  H2
	H2O(g)           -1.51   -0.00    1.51  H2O
	O2(g)           -39.19  -42.08   -2.89  O2

Initial solution 24.	

-----------------------------Solution composition------------------------------

	Elements           Molality       Moles

	Ca               2.500e-003  2.500e-003  Charge balance
	Cl               5.000e-003  5.000e-003

----------------------------Description of solution----------------------------

                                       pH  =   7.000    
                                       pe  =   4.000    
       Specific Conductance (uS/cm, 25 oC) = 617
                          Density (g/cm3)  =   0.99728
                        Activity of water  =   1.000
                           Ionic strength  =  7.500e-003
                       Mass of water (kg)  =  1.000e+000
                 Total alkalinity (eq/kg)  =  4.551e-009
                    Total carbon (mol/kg)  =  0.000e+000
                       Total CO2 (mol/kg)  =  0.000e+000
                      Temperature (deg C)  =  25.000
                  Electrical balance (eq)  =  1.449e-014
 Percent error, 100*(Cat-|An|)/(Cat+|An|)  =   0.00
                               Iterations  =   5
                                  Total H  = 1.110124e+002
                                  Total O  = 5.550622e+001

----------------------------Distribution of species----------------------------

                                                   Log       Log         Log 
   Species                 Molality    Activity  Molality  Activity     Gamma

   OH-                   1.098e-007  1.001e-007    -6.959    -7.000    -0.040
   H+                    1.084e-007  1.000e-007    -6.965    -7.000    -0.035
   H2O                   5.551e+001  9.999e-001     1.744    -0.000     0.000
Ca              2.500e-003
   Ca+2                  2.500e-003  1.757e-003    -2.602    -2.755    -0.153
   CaOH+                 3.192e-009  2.915e-009    -8.496    -8.535    -0.039
Cl              5.000e-003
   Cl-                   5.000e-003  4.560e-003    -2.301    -2.341    -0.040
H(0)            1.413e-025
   H2                    7.067e-026  7.079e-026   -25.151   -25.150     0.001
O(0)            0.000e+000
   O2                    0.000e+000  0.000e+000   -42.081   -42.080     0.001

------------------------------Saturation indices-------------------------------

	Phase               SI log IAP  log KT

	H2(g)           -22.00  -25.15   -3.15  H2
	H2O(g)           -1.51   -0.00    1.51  H2O
	O2(g)           -39.19  -42.08   -2.89  O2

Initial solution 25.	

-----------------------------Solution composition------------------------------

	Elements           Molality       Moles

	Ca               5.000e-003  5.000e-003  Charge balance
	Cl               1.000e-002  1.000e-002

----------------------------Description of solution----------------------------

                                       pH  =   7.000    
                                       pe  =   4.000    
       Specific Conductance (uS/cm, 25 oC) = 1194
                          Density (g/cm3)  =   0.99751
                        Activity of water  =   1.000
                           Ionic strength  =  1.500e-002
                       Mass of water (kg)  =  1.000e+000
                 Total alkalinity (eq/kg)  =  8.235e-009
                    Total carbon (mol/kg)  =  0.000e+000
                       Total CO2 (mol/kg)  =  0.000e+000
                      Temperature (deg C)  =  25.000
                  Electrical balance (eq)  =  9.826e-011
 Percent error, 100*(Cat-|An|)/(Cat+|An|)  =   0.00
                               Iterations  =   6
                                  Total H  = 1.110124e+002
                                  Total O  = 5.550622e+001

----------------------------Distribution of species----------------------------

                                                   Log       Log         Log 
   Species                 Molality    Activity  Molality  Activity     Gamma

   OH-                   1.135e-007  1.001e-007    -6.945    -7.000    -0.055
   H+                    1.111e-007  1.000e-007    -6.954    -7.000    -0.046
   H2O                   5.551e+001  9.997e-001     1.744    -0.000     0.000
Ca              5.000e-003
   Ca+2                  5.000e-003  3.117e-003    -2.301    -2.506    -0.205
   CaOH+                 5.846e-009  5.171e-009    -8.233    -8.286    -0.053
Cl              1.000e-002
   Cl-                   1.000e-002  8.822e-003    -2.000    -2.054    -0.054
H(0)            1.411e-025
   H2                    7.055e-026  7.079e-026   -25.152   -25.150     0.002
O(0)            0.000e+000
   O2                    0.000e+000  0.000e+000   -42.082   -42.080     0.002

------------------------------Saturation indices-------------------------------

	Phase               SI log IAP  log KT

	H2(g)           -22.00  -25.15   -3.15  H2
	H2O(g)           -1.51   -0.00    1.51  H2O
	O2(g)           -39.19  -42.08   -2.89  O2

Initial solution 26.	

-----------------------------Solution composition------------------------------

	Elements           Molality       Moles

	Ca               1.000e-002  1.000e-002  Charge balance
	Cl               2.000e-002  2.000e-002

----------------------------Description of solution----------------------------

                                       pH  =   7.000    
                                       pe  =   4.000    
       Specific Conductance (uS/cm, 25 oC) = 2293
                          Density (g/cm3)  =   0.99797
                        Activity of water  =   0.999
                           Ionic strength  =  3.000e-002
                       Mass of water (kg)  =  1.000e+000
                 Total alkalinity (eq/kg)  =  1.463e-008
                    Total carbon (mol/kg)  =  0.000e+000
                       Total CO2 (mol/kg)  =  0.000e+000
                      Temperature (deg C)  =  25.000
                  Electrical balance (eq)  =  3.976e-013
 Percent error, 100*(Cat-|An|)/(Cat+|An|)  =   0.00
                               Iterations  =   8
                                  Total H  = 1.110124e+002
                                  Total O  = 5.550622e+001

----------------------------Distribution of species----------------------------

                                                   Log       Log         Log 
   Species                 Molality    Activity  Molality  Activity     Gamma

   OH-                   1.185e-007  1.001e-007    -6.926    -7.000    -0.074
   H+                    1.144e-007  1.000e-007    -6.942    -7.000    -0.058
   H2O                   5.551e+001  9.995e-001     1.744    -0.000     0.000
Ca              1.000e-002
   Ca+2                  1.000e-002  5.373e-003    -2.000    -2.270    -0.270
   CaOH+                 1.049e-008  8.912e-009    -7.979    -8.050    -0.071
Cl              2.000e-002
   Cl-                   2.000e-002  1.690e-002    -1.699    -1.772    -0.073
H(0)            1.406e-025
   H2                    7.031e-026  7.079e-026   -25.153   -25.150     0.003
O(0)            0.000e+000
   O2                    0.000e+000  0.000e+000   -42.083   -42.080     0.003

------------------------------Saturation indices-------------------------------

	Phase               SI log IAP  log KT

	H2(g)           -22.00  -25.15   -3.15  H2
	H2O(g)           -1.51   -0.00    1.51  H2O
	O2(g)           -39.19  -42.08   -2.89  O2

Initial solution 27.	

-----------------------------Solution composition------------------------------

	Elements           Molality       Moles

	Ca               2.500e-002  2.500e-002  Charge balance
	Cl               5.000e-002  5.000e-002

----------------------------Description of solution----------------------------

                                       pH  =   7.000    
                                       pe  =   4.000    
       Specific Conductance (uS/cm, 25 oC) = 5367
                          Density (g/cm3)  =   0.99934
                        Activity of water  =   0.999
                           Ionic strength  =  7.500e-002
                       Mass of water (kg)  =  1.000e+000
                 Total alkalinity (eq/kg)  =  3.025e-008
                    Total carbon (mol/kg)  =  0.000e+000
                       Total CO2 (mol/kg)  =  0.000e+000
                      Temperature (deg C)  =  25.000
                  Electrical balance (eq)  =  1.175e-010
 Percent error, 100*(Cat-|An|)/(Cat+|An|)  =   0.00
                               Iterations  =   7
                                  Total H  = 1.110124e+002
                                  Total O  = 5.550622e+001

----------------------------Distribution of species----------------------------

                                                   Log       Log         Log 
   Species                 Molality    Activity  Molality  Activity     Gamma

   OH-                   1.276e-007  9.998e-008    -6.894    -7.000    -0.106
   H+                    1.194e-007  1.000e-007    -6.923    -7.000    -0.077
   H2O                   5.551e+001  9.987e-001     1.744    -0.001     0.000
Ca              2.500e-002
   Ca+2                  2.500e-002  1.060e-002    -1.602    -1.975    -0.373
   CaOH+                 2.202e-008  1.757e-008    -7.657    -7.755    -0.098
Cl              5.000e-002
   Cl-                   5.000e-002  3.926e-002    -1.301    -1.406    -0.105
H(0)            1.392e-025
   H2                    6.958e-026  7.079e-026   -25.158   -25.150     0.008
O(0)            0.000e+000
   O2                    0.000e+000  0.000e+000   -42.089   -42.081     0.008

------------------------------Saturation indices-------------------------------

	Phase               SI log IAP  log KT

	H2(g)           -22.00  -25.15   -3.15  H2
	H2O(g)           -1.51   -0.00    1.51  H2O
	O2(g)           -39.19  -42.08   -2.89  O2

Initial solution 28.	

-----------------------------Solution composition------------------------------

	Elements           Molality       Moles

	Ca               5.000e-002  5.000e-002  Charge balance
	Cl               1.000e-001  1.000e-001

----------------------------Description of solution----------------------------

                                       pH  =   7.000    
                                       pe  =   4.000    
       Specific Conductance (uS/cm, 25 oC) = 10142
                          Density (g/cm3)  =   1.00160
                        Activity of water  =   0.997
                           Ionic strength  =  1.500e-001
                       Mass of water (kg)  =  1.000e+000
                 Total alkalinity (eq/kg)  =  5.112e-008
                    Total carbon (mol/kg)  =  0.000e+000
                       Total CO2 (mol/kg)  =  0.000e+000
                      Temperature (deg C)  =  25.000
                  Electrical balance (eq)  =  3.336e-014
 Percent error, 100*(Cat-|An|)/(Cat+|An|)  =   0.00
                               Iterations  =   7
                                  Total H  = 1.110124e+002
                                  Total O  = 5.550622e+001

----------------------------Distribution of species----------------------------

                                                   Log       Log         Log 
   Species                 Molality    Activity  Molality  Activity     Gamma

   OH-                   1.367e-007  9.985e-008    -6.864    -7.001    -0.137
   H+                    1.236e-007  1.000e-007    -6.908    -7.000    -0.092
   H2O                   5.551e+001  9.974e-001     1.744    -0.001     0.000
Ca              5.000e-002
   Ca+2                  5.000e-002  1.743e-002    -1.301    -1.759    -0.458
   CaOH+                 3.798e-008  2.886e-008    -7.420    -7.540    -0.119
Cl              1.000e-001
   Cl-                   1.000e-001  7.341e-002    -1.000    -1.134    -0.134
H(0)            1.368e-025
   H2                    6.839e-026  7.079e-026   -25.165   -25.150     0.015
O(0)            0.000e+000
   O2                    0.000e+000  0.000e+000   -42.097   -42.082     0.015

------------------------------Saturation indices-------------------------------

	Phase               SI log IAP  log KT

	H2(g)           -22.00  -25.15   -3.15  H2
	H2O(g)           -1.51   -0.00    1.51  H2O
	O2(g)           -39.19  -42.08   -2.89  O2

------------------
End of simulation.
------------------

------------------------------------
Reading input data for simulation 5.
------------------------------------

	SOLUTION_SPREAD
	 units mol/kgw
	Cl	Mg	HB Chem Phys
	5.00E-04	1 charge	125.6
	1.00E-03	1 charge	124.1
	5.00E-03	1 charge	118.3
	1.00E-02	1 charge	114.6
	2.00E-02	1 charge	110
	5.00E-02	1 charge	103.1
	1.00E-01	1 charge	97.1
	END
WARNING: Could not find element in database, HBChemPhys.
	Concentration is set to zero.
-------------------------------------------
Beginning of initial solution calculations.
-------------------------------------------

Initial solution 29.	

-----------------------------Solution composition------------------------------

	Elements           Molality       Moles

	Cl               5.000e-004  5.000e-004
	Mg               2.500e-004  2.500e-004  Charge balance

----------------------------Description of solution----------------------------

                                       pH  =   7.000    
                                       pe  =   4.000    
       Specific Conductance (uS/cm, 25 oC) = 62
                          Density (g/cm3)  =   0.99707
                        Activity of water  =   1.000
                           Ionic strength  =  7.501e-004
                       Mass of water (kg)  =  1.000e+000
                 Total alkalinity (eq/kg)  =  8.544e-009
                    Total carbon (mol/kg)  =  0.000e+000
                       Total CO2 (mol/kg)  =  0.000e+000
                      Temperature (deg C)  =  25.000
                  Electrical balance (eq)  =  2.459e-018
 Percent error, 100*(Cat-|An|)/(Cat+|An|)  =   0.00
                               Iterations  =   6
                                  Total H  = 1.110124e+002
                                  Total O  = 5.550622e+001

----------------------------Distribution of species----------------------------

                                                   Log       Log         Log 
   Species                 Molality    Activity  Molality  Activity     Gamma

   OH-                   1.033e-007  1.001e-007    -6.986    -7.000    -0.014
   H+                    1.030e-007  1.000e-007    -6.987    -7.000    -0.013
   H2O                   5.551e+001  1.000e+000     1.744    -0.000     0.000
Cl              5.000e-004
   Cl-                   5.000e-004  4.847e-004    -3.301    -3.315    -0.014
H(0)            1.416e-025
   H2                    7.078e-026  7.079e-026   -25.150   -25.150     0.000
Mg              2.500e-004
   Mg+2                  2.500e-004  2.213e-004    -3.602    -3.655    -0.053
   MgOH+                 8.287e-009  8.034e-009    -8.082    -8.095    -0.013
O(0)            0.000e+000
   O2                    0.000e+000  0.000e+000   -42.080   -42.080     0.000

------------------------------Saturation indices-------------------------------

	Phase               SI log IAP  log KT

	H2(g)           -22.00  -25.15   -3.15  H2
	H2O(g)           -1.51   -0.00    1.51  H2O
	O2(g)           -39.19  -42.08   -2.89  O2

Initial solution 30.	

-----------------------------Solution composition------------------------------

	Elements           Molality       Moles

	Cl               1.000e-003  1.000e-003
	Mg               5.000e-004  5.000e-004  Charge balance

----------------------------Description of solution----------------------------

                                       pH  =   7.000    
                                       pe  =   4.000    
       Specific Conductance (uS/cm, 25 oC) = 123
                          Density (g/cm3)  =   0.99709
                        Activity of water  =   1.000
                           Ionic strength  =  1.500e-003
                       Mass of water (kg)  =  1.000e+000
                 Total alkalinity (eq/kg)  =  1.640e-008
                    Total carbon (mol/kg)  =  0.000e+000
                       Total CO2 (mol/kg)  =  0.000e+000
                      Temperature (deg C)  =  25.000
                  Electrical balance (eq)  =  8.775e-016
 Percent error, 100*(Cat-|An|)/(Cat+|An|)  =   0.00
                               Iterations  =   5
                                  Total H  = 1.110124e+002
                                  Total O  = 5.550622e+001

----------------------------Distribution of species----------------------------

                                                   Log       Log         Log 
   Species                 Molality    Activity  Molality  Activity     Gamma

   OH-                   1.046e-007  1.001e-007    -6.981    -7.000    -0.019
   H+                    1.042e-007  1.000e-007    -6.982    -7.000    -0.018
   H2O                   5.551e+001  1.000e+000     1.744    -0.000     0.000
Cl              1.000e-003
   Cl-                   1.000e-003  9.575e-004    -3.000    -3.019    -0.019
H(0)            1.415e-025
   H2                    7.077e-026  7.079e-026   -25.150   -25.150     0.000
Mg              5.000e-004
   Mg+2                  5.000e-004  4.222e-004    -3.301    -3.374    -0.073
   MgOH+                 1.601e-008  1.533e-008    -7.796    -7.814    -0.019
O(0)            0.000e+000
   O2                    0.000e+000  0.000e+000   -42.080   -42.080     0.000

------------------------------Saturation indices-------------------------------

	Phase               SI log IAP  log KT

	H2(g)           -22.00  -25.15   -3.15  H2
	H2O(g)           -1.51   -0.00    1.51  H2O
	O2(g)           -39.19  -42.08   -2.89  O2

Initial solution 31.	

-----------------------------Solution composition------------------------------

	Elements           Molality       Moles

	Cl               5.000e-003  5.000e-003
	Mg               2.500e-003  2.500e-003  Charge balance

----------------------------Description of solution----------------------------

                                       pH  =   7.000    
                                       pe  =   4.000    
       Specific Conductance (uS/cm, 25 oC) = 589
                          Density (g/cm3)  =   0.99725
                        Activity of water  =   1.000
                           Ionic strength  =  7.500e-003
                       Mass of water (kg)  =  1.000e+000
                 Total alkalinity (eq/kg)  =  7.155e-008
                    Total carbon (mol/kg)  =  0.000e+000
                       Total CO2 (mol/kg)  =  0.000e+000
                      Temperature (deg C)  =  25.000
                  Electrical balance (eq)  =  1.451e-014
 Percent error, 100*(Cat-|An|)/(Cat+|An|)  =   0.00
                               Iterations  =   5
                                  Total H  = 1.110124e+002
                                  Total O  = 5.550622e+001

----------------------------Distribution of species----------------------------

                                                   Log       Log         Log 
   Species                 Molality    Activity  Molality  Activity     Gamma

   OH-                   1.098e-007  1.001e-007    -6.959    -7.000    -0.040
   H+                    1.084e-007  1.000e-007    -6.965    -7.000    -0.035
   H2O                   5.551e+001  9.999e-001     1.744    -0.000     0.000
Cl              5.000e-003
   Cl-                   5.000e-003  4.560e-003    -2.301    -2.341    -0.040
H(0)            1.413e-025
   H2                    7.067e-026  7.079e-026   -25.151   -25.150     0.001
Mg              2.500e-003
   Mg+2                  2.500e-003  1.765e-003    -2.602    -2.753    -0.151
   MgOH+                 7.019e-008  6.409e-008    -7.154    -7.193    -0.039
O(0)            0.000e+000
   O2                    0.000e+000  0.000e+000   -42.081   -42.080     0.001

------------------------------Saturation indices-------------------------------

	Phase               SI log IAP  log KT

	H2(g)           -22.00  -25.15   -3.15  H2
	H2O(g)           -1.51   -0.00    1.51  H2O
	O2(g)           -39.19  -42.08   -2.89  O2

Initial solution 32.	

-----------------------------Solution composition------------------------------

	Elements           Molality       Moles

	Cl               1.000e-002  1.000e-002
[...]
                       Mass of water (kg)  =  1.000e+000
                 Total alkalinity (eq/kg)  =  1.082e-010
                    Total carbon (mol/kg)  =  0.000e+000
                       Total CO2 (mol/kg)  =  0.000e+000
                      Temperature (deg C)  =  25.000
                  Electrical balance (eq)  = -1.082e-010
 Percent error, 100*(Cat-|An|)/(Cat+|An|)  =  -0.00
                               Iterations  =  11
                                  Total H  = 1.110124e+002
                                  Total O  = 5.550622e+001

----------------------------Distribution of species----------------------------

                                                   Log       Log         Log 
   Species                 Molality    Activity  Molality  Activity     Gamma

   OH-                   1.037e-007  1.000e-007    -6.984    -7.000    -0.016
   H+                    1.035e-007  1.001e-007    -6.985    -7.000    -0.015
   H2O                   5.551e+001  1.000e+000     1.744    -0.000     0.000
Cl              5.000e-004
   Cl-                   4.998e-004  4.823e-004    -3.301    -3.317    -0.016
   LaCl+2                1.392e-007  1.208e-007    -6.856    -6.918    -0.062
H(0)            2.252e-039
   H2                    1.126e-039  1.126e-039   -38.949   -38.948     0.000
La              1.667e-004
   La+3                  1.665e-004  1.227e-004    -3.779    -3.911    -0.133
   LaCl+2                1.392e-007  1.208e-007    -6.856    -6.918    -0.062
O(0)            6.573e-015
   O2                    3.286e-015  3.287e-015   -14.483   -14.483     0.000

------------------------------Saturation indices-------------------------------

	Phase               SI log IAP  log KT

	H2(g)           -35.80  -38.95   -3.15  H2
	H2O(g)           -1.51   -0.00    1.51  H2O
	O2(g)           -11.59  -14.48   -2.89  O2

Reaction step 2.

Using solution 1.	
Using reaction 1.	

Reaction 1.	Irreversible reaction defined in simulation 8.

	 1.000e-003 moles of the following reaction have been added:

	                 Relative
	Reactant            moles

	LaCl3                0.33330

	                 Relative
	Element             moles
	Cl                   0.99990
	La                   0.33330

-----------------------------Solution composition------------------------------

	Elements           Molality       Moles

	Cl               9.999e-004  9.999e-004
	La               3.333e-004  3.333e-004

----------------------------Description of solution----------------------------

                                       pH  =   6.999      Charge balance
                                       pe  =  10.900      Adjusted to redox equilibrium
       Specific Conductance (uS/cm, 25 oC) = 135
                          Density (g/cm3)  =   0.99711
                        Activity of water  =   1.000
                           Ionic strength  =  1.998e-003
                       Mass of water (kg)  =  1.000e+000
                 Total alkalinity (eq/kg)  =  1.082e-010
                    Total carbon (mol/kg)  =  0.000e+000
                       Total CO2 (mol/kg)  =  0.000e+000
                      Temperature (deg C)  =  25.000
                  Electrical balance (eq)  = -1.082e-010
 Percent error, 100*(Cat-|An|)/(Cat+|An|)  =  -0.00
                               Iterations  =  11
                                  Total H  = 1.110124e+002
                                  Total O  = 5.550622e+001

----------------------------Distribution of species----------------------------

                                                   Log       Log         Log 
   Species                 Molality    Activity  Molality  Activity     Gamma

   OH-                   1.050e-007  9.993e-008    -6.979    -7.000    -0.022
   H+                    1.049e-007  1.002e-007    -6.979    -6.999    -0.020
   H2O                   5.551e+001  1.000e+000     1.744    -0.000     0.000
Cl              9.999e-004
   Cl-                   9.994e-004  9.508e-004    -3.000    -3.022    -0.022
   LaCl+2                5.184e-007  4.259e-007    -6.285    -6.371    -0.085
H(0)            2.250e-039
   H2                    1.125e-039  1.126e-039   -38.949   -38.949     0.000
La              3.333e-004
   La+3                  3.328e-004  2.194e-004    -3.478    -3.659    -0.181
   LaCl+2                5.184e-007  4.259e-007    -6.285    -6.371    -0.085
O(0)            6.577e-015
   O2                    3.289e-015  3.290e-015   -14.483   -14.483     0.000

------------------------------Saturation indices-------------------------------

	Phase               SI log IAP  log KT

	H2(g)           -35.80  -38.95   -3.15  H2
	H2O(g)           -1.51   -0.00    1.51  H2O
	O2(g)           -11.59  -14.48   -2.89  O2

Reaction step 3.

Using solution 1.	
Using reaction 1.	

Reaction 1.	Irreversible reaction defined in simulation 8.

	 5.000e-003 moles of the following reaction have been added:

	                 Relative
	Reactant            moles

	LaCl3                0.33330

	                 Relative
	Element             moles
	Cl                   0.99990
	La                   0.33330

-----------------------------Solution composition------------------------------

	Elements           Molality       Moles

	Cl               5.000e-003  5.000e-003
	La               1.667e-003  1.667e-003

----------------------------Description of solution----------------------------

                                       pH  =   6.997      Charge balance
                                       pe  =  10.903      Adjusted to redox equilibrium
       Specific Conductance (uS/cm, 25 oC) = 626
                          Density (g/cm3)  =   0.99737
                        Activity of water  =   1.000
                           Ionic strength  =  9.969e-003
                       Mass of water (kg)  =  1.000e+000
                 Total alkalinity (eq/kg)  =  1.082e-010
                    Total carbon (mol/kg)  =  0.000e+000
                       Total CO2 (mol/kg)  =  0.000e+000
                      Temperature (deg C)  =  25.000
                  Electrical balance (eq)  = -1.082e-010
 Percent error, 100*(Cat-|An|)/(Cat+|An|)  =  -0.00
                               Iterations  =  11
                                  Total H  = 1.110124e+002
                                  Total O  = 5.550622e+001

----------------------------Distribution of species----------------------------

                                                   Log       Log         Log 
   Species                 Molality    Activity  Molality  Activity     Gamma

   OH-                   1.104e-007  9.937e-008    -6.957    -7.003    -0.046
   H+                    1.103e-007  1.007e-007    -6.958    -6.997    -0.039
   H2O                   5.551e+001  9.999e-001     1.744    -0.000     0.000
Cl              5.000e-003
   Cl-                   4.989e-003  4.493e-003    -2.302    -2.347    -0.045
   LaCl+2                1.013e-005  6.735e-006    -4.994    -5.172    -0.177
H(0)            2.241e-039
   H2                    1.120e-039  1.123e-039   -38.951   -38.950     0.001
La              1.667e-003
   La+3                  1.656e-003  7.341e-004    -2.781    -3.134    -0.353
   LaCl+2                1.013e-005  6.735e-006    -4.994    -5.172    -0.177
O(0)            6.596e-015
   O2                    3.298e-015  3.306e-015   -14.482   -14.481     0.001

------------------------------Saturation indices-------------------------------

	Phase               SI log IAP  log KT

	H2(g)           -35.80  -38.95   -3.15  H2
	H2O(g)           -1.51   -0.00    1.51  H2O
	O2(g)           -11.59  -14.48   -2.89  O2

Reaction step 4.

Using solution 1.	
Using reaction 1.	

Reaction 1.	Irreversible reaction defined in simulation 8.

	 1.000e-002 moles of the following reaction have been added:

	                 Relative
	Reactant            moles

	LaCl3                0.33330

	                 Relative
	Element             moles
	Cl                   0.99990
	La                   0.33330

-----------------------------Solution composition------------------------------

	Elements           Molality       Moles

	Cl               9.999e-003  9.999e-003
	La               3.333e-003  3.333e-003

----------------------------Description of solution----------------------------

                                       pH  =   6.994      Charge balance
                                       pe  =  10.906      Adjusted to redox equilibrium
       Specific Conductance (uS/cm, 25 oC) = 1193
                          Density (g/cm3)  =   0.99768
                        Activity of water  =   1.000
                           Ionic strength  =  1.989e-002
                       Mass of water (kg)  =  1.000e+000
                 Total alkalinity (eq/kg)  =  1.082e-010
                    Total carbon (mol/kg)  =  0.000e+000
                       Total CO2 (mol/kg)  =  0.000e+000
                      Temperature (deg C)  =  25.000
                  Electrical balance (eq)  = -1.082e-010
 Percent error, 100*(Cat-|An|)/(Cat+|An|)  =  -0.00
                               Iterations  =  11
                                  Total H  = 1.110124e+002
                                  Total O  = 5.550622e+001

----------------------------Distribution of species----------------------------

                                                   Log       Log         Log 
   Species                 Molality    Activity  Molality  Activity     Gamma

   OH-                   1.139e-007  9.882e-008    -6.943    -7.005    -0.062
   H+                    1.138e-007  1.013e-007    -6.944    -6.994    -0.051
   H2O                   5.551e+001  9.998e-001     1.744    -0.000     0.000
Cl              9.999e-003
   Cl-                   9.964e-003  8.648e-003    -2.002    -2.063    -0.062
   LaCl+2                3.520e-005  2.036e-005    -4.453    -4.691    -0.238
H(0)            2.228e-039
   H2                    1.114e-039  1.119e-039   -38.953   -38.951     0.002
La              3.333e-003
   La+3                  3.298e-003  1.153e-003    -2.482    -2.938    -0.456
   LaCl+2                3.520e-005  2.036e-005    -4.453    -4.691    -0.238
O(0)            6.623e-015
   O2                    3.312e-015  3.327e-015   -14.480   -14.478     0.002

------------------------------Saturation indices-------------------------------

	Phase               SI log IAP  log KT

	H2(g)           -35.80  -38.95   -3.15  H2
	H2O(g)           -1.51   -0.00    1.51  H2O
	O2(g)           -11.59  -14.48   -2.89  O2

Reaction step 5.

Using solution 1.	
Using reaction 1.	

Reaction 1.	Irreversible reaction defined in simulation 8.

	 2.000e-002 moles of the following reaction have been added:

	                 Relative
	Reactant            moles

	LaCl3                0.33330

	                 Relative
	Element             moles
	Cl                   0.99990
	La                   0.33330

-----------------------------Solution composition------------------------------

	Elements           Molality       Moles

	Cl               2.000e-002  2.000e-002
	La               6.666e-003  6.666e-003

----------------------------Description of solution----------------------------

                                       pH  =   6.991      Charge balance
                                       pe  =  11.010      Adjusted to redox equilibrium
       Specific Conductance (uS/cm, 25 oC) = 2251
                          Density (g/cm3)  =   0.99831
                        Activity of water  =   1.000
                           Ionic strength  =  3.963e-002
                       Mass of water (kg)  =  1.000e+000
                 Total alkalinity (eq/kg)  =  1.082e-010
                    Total carbon (mol/kg)  =  0.000e+000
                       Total CO2 (mol/kg)  =  0.000e+000
                      Temperature (deg C)  =  25.000
                  Electrical balance (eq)  = -2.347e-010
 Percent error, 100*(Cat-|An|)/(Cat+|An|)  =  -0.00
                               Iterations  =  10
                                  Total H  = 1.110124e+002
                                  Total O  = 5.550622e+001

----------------------------Distribution of species----------------------------

                                                   Log       Log         Log 
   Species                 Molality    Activity  Molality  Activity     Gamma

   OH-                   1.184e-007  9.795e-008    -6.926    -7.009    -0.083
   H+                    1.183e-007  1.022e-007    -6.927    -6.991    -0.064
   H2O                   5.551e+001  9.995e-001     1.744    -0.000     0.000
Cl              2.000e-002
   Cl-                   1.988e-002  1.646e-002    -1.702    -1.784    -0.082
   LaCl+2                1.206e-004  5.859e-005    -3.919    -4.232    -0.313
H(0)            1.402e-039
   H2                    7.008e-040  7.072e-040   -39.154   -39.150     0.004
La              6.666e-003
   La+3                  6.545e-003  1.743e-003    -2.184    -2.759    -0.575
   LaCl+2                1.206e-004  5.859e-005    -3.919    -4.232    -0.313
O(0)            1.650e-014
   O2                    8.252e-015  8.328e-015   -14.083   -14.079     0.004

------------------------------Saturation indices-------------------------------

	Phase               SI log IAP  log KT

	H2(g)           -36.00  -39.15   -3.15  H2
	H2O(g)           -1.51   -0.00    1.51  H2O
	O2(g)           -11.19  -14.08   -2.89  O2

Reaction step 6.

Using solution 1.	
Using reaction 1.	

Reaction 1.	Irreversible reaction defined in simulation 8.

	 5.000e-002 moles of the following reaction have been added:

	                 Relative
	Reactant            moles

	LaCl3                0.33330

	                 Relative
	Element             moles
	Cl                   0.99990
	La                   0.33330

-----------------------------Solution composition------------------------------

	Elements           Molality       Moles

	Cl               5.000e-002  5.000e-002
	La               1.667e-002  1.667e-002

----------------------------Description of solution----------------------------

                                       pH  =   6.983      Charge balance
                                       pe  =  11.026      Adjusted to redox equilibrium
       Specific Conductance (uS/cm, 25 oC) = 5148
                          Density (g/cm3)  =   1.00018
                        Activity of water  =   0.999
                           Ionic strength  =  9.817e-002
                       Mass of water (kg)  =  1.000e+000
                 Total alkalinity (eq/kg)  =  1.082e-010
                    Total carbon (mol/kg)  =  0.000e+000
                       Total CO2 (mol/kg)  =  0.000e+000
                      Temperature (deg C)  =  25.000
                  Electrical balance (eq)  = -1.235e-010
 Percent error, 100*(Cat-|An|)/(Cat+|An|)  =  -0.00
                               Iterations  =  10
                                  Total H  = 1.110124e+002
                                  Total O  = 5.550622e+001

----------------------------Distribution of species----------------------------

                                                   Log       Log         Log 
   Species                 Molality    Activity  Molality  Activity     Gamma

   OH-                   1.260e-007  9.615e-008    -6.900    -7.017    -0.117
   H+                    1.259e-007  1.040e-007    -6.900    -6.983    -0.083
   H2O                   5.551e+001  9.989e-001     1.744    -0.000     0.000
Cl              5.000e-002
   Cl-                   4.939e-002  3.782e-002    -1.306    -1.422    -0.116
   LaCl+2                6.081e-004  2.227e-004    -3.216    -3.652    -0.436
H(0)            1.331e-039
   H2                    6.654e-040  6.807e-040   -39.177   -39.167     0.010
La              1.667e-002
   La+3                  1.606e-002  2.883e-003    -1.794    -2.540    -0.746
   LaCl+2                6.081e-004  2.227e-004    -3.216    -3.652    -0.436
O(0)            1.755e-014
   O2                    8.777e-015  8.978e-015   -14.057   -14.047     0.010

------------------------------Saturation indices-------------------------------

	Phase               SI log IAP  log KT

	H2(g)           -36.02  -39.17   -3.15  H2
	H2O(g)           -1.51   -0.00    1.51  H2O
	O2(g)           -11.15  -14.05   -2.89  O2

Reaction step 7.

Using solution 1.	
Using reaction 1.	

Reaction 1.	Irreversible reaction defined in simulation 8.

	 1.000e-001 moles of the following reaction have been added:

	                 Relative
	Reactant            moles

	LaCl3                0.33330

	                 Relative
	Element             moles
	Cl                   0.99990
	La                   0.33330

-----------------------------Solution composition------------------------------

	Elements           Molality       Moles

	Cl               9.999e-002  9.999e-002
	La               3.333e-002  3.333e-002

----------------------------Description of solution----------------------------

                                       pH  =   6.975      Charge balance
                                       pe  =  11.041      Adjusted to redox equilibrium
       Specific Conductance (uS/cm, 25 oC) = 9550
                          Density (g/cm3)  =   1.00327
                        Activity of water  =   0.998
                           Ionic strength  =  1.938e-001
                       Mass of water (kg)  =  1.000e+000
                 Total alkalinity (eq/kg)  =  1.082e-010
                    Total carbon (mol/kg)  =  0.000e+000
                       Total CO2 (mol/kg)  =  0.000e+000
                      Temperature (deg C)  =  25.000
                  Electrical balance (eq)  = -1.088e-010
 Percent error, 100*(Cat-|An|)/(Cat+|An|)  =  -0.00
                               Iterations  =  10
                                  Total H  = 1.110124e+002
                                  Total O  = 5.550622e+001

----------------------------Distribution of species----------------------------

                                                   Log       Log         Log 
   Species                 Molality    Activity  Molality  Activity     Gamma

   OH-                   1.328e-007  9.423e-008    -6.877    -7.026    -0.149
   H+                    1.327e-007  1.060e-007    -6.877    -6.975    -0.097
   H2O                   5.551e+001  9.978e-001     1.744    -0.001     0.000
Cl              9.999e-002
   Cl-                   9.792e-002  6.997e-002    -1.009    -1.155    -0.146
   LaCl+2                2.071e-003  5.927e-004    -2.684    -3.227    -0.543
H(0)            1.257e-039
   H2                    6.285e-040  6.572e-040   -39.202   -39.182     0.019
La              3.333e-002
   La+3                  3.126e-002  4.149e-003    -1.505    -2.382    -0.877
   LaCl+2                2.071e-003  5.927e-004    -2.684    -3.227    -0.543
O(0)            1.838e-014
   O2                    9.189e-015  9.608e-015   -14.037   -14.017     0.019

------------------------------Saturation indices-------------------------------

	Phase               SI log IAP  log KT

	H2(g)           -36.03  -39.18   -3.15  H2
	H2O(g)           -1.51   -0.00    1.51  H2O
	O2(g)           -11.12  -14.02   -2.89  O2

------------------
End of simulation.
------------------

------------------------------------
Reading input data for simulation 9.
------------------------------------

-----------
End of run.
-----------

