   Input file: ex10_pz
  Output file: ex10_pz.out
Database file: ../database/pitzer.dat

------------------
Reading data base.
------------------

	SOLUTION_MASTER_SPECIES
	SOLUTION_SPECIES
	PHASES
	PITZER
	EXCHANGE_MASTER_SPECIES
	EXCHANGE_SPECIES
	SURFACE_MASTER_SPECIES
	SURFACE_SPECIES
	END
------------------------------------
Reading input data for simulation 1.
------------------------------------

	DATABASE ../database/pitzer.dat
	TITLE Example 10.--Transport with equilibrium_phases, 
	   exchange, and surface reactions
	SOLUTION 1 Brine
	        pH      5.713
	        pe      4.0    # O2(g)   -0.7
	        temp    25.
	        units   mol/kgw
	        Ca      .4655
	        Mg      .1609
	        Na      5.402
	        Cl      6.642           charge
	        C       .00396
	        S       .004725
	EQUILIBRIUM_PHASES 1
	        Dolomite        0.0     1.6
	        Calcite         0.0     0.1
	EXCHANGE 1
	        equilibrate with solution 1
	        X       1.0
	SURFACE 1
	        equilibrate solution 1
	        Hfo_w           0.07    600.    30.
	END
-----
TITLE
-----

 Example 10.--Transport with equilibrium_phases, 
   exchange, and surface reactions

-------------------------------------------
Beginning of initial solution calculations.
-------------------------------------------

Initial solution 1.	Brine

-----------------------------Solution composition------------------------------

	Elements           Molality       Moles

	C                3.960e-003  3.960e-003
	Ca               4.655e-001  4.655e-001
	Cl               6.643e+000  6.643e+000  Charge balance
	Mg               1.609e-001  1.609e-001
	Na               5.402e+000  5.402e+000
	S                4.725e-003  4.725e-003

----------------------------Description of solution----------------------------

                                       pH  =   5.713    
                                       pe  =   4.000    
       Specific Conductance (uS/cm, 25 oC) = 494459
                          Density (g/cm3)  =   1.22187
                        Activity of water  =   0.724
                           Ionic strength  =  7.286e+000
                       Mass of water (kg)  =  1.000e+000
                 Total alkalinity (eq/kg)  =  2.816e-003
                       Total CO2 (mol/kg)  =  3.960e-003
                      Temperature (deg C)  =  25.000
                  Electrical balance (eq)  = -5.681e-013
 Percent error, 100*(Cat-|An|)/(Cat+|An|)  =  -0.00
                               Iterations  =  20
                         Gamma iterations  =   5
                      Osmotic coefficient  =   1.41518
                         Density of water  =   0.99706
                                  Total H  = 1.110151e+002
                                  Total O  = 5.553576e+001

----------------------------Distribution of species----------------------------

                                                           MacInnes   MacInnes
	                               MacInnes    Log       Log         Log 
   Species                 Molality    Activity  Molality  Activity     Gamma

   H+                    1.889e-007  1.936e-006    -6.724    -5.713     1.011
   OH-                   2.505e-008  3.755e-009    -7.601    -8.425    -0.824
   H2O                   5.551e+001  7.238e-001     1.744    -0.140     0.000
C(4)            3.960e-003
   HCO3-                 2.623e-003  7.401e-004    -2.581    -3.131    -0.549
   CO2                   1.241e-003  4.307e-003    -2.906    -2.366     0.540
   CaCO3                 6.686e-005  6.686e-005    -4.175    -4.175     0.000
   MgCO3                 2.318e-005  2.318e-005    -4.635    -4.635     0.000
   CO3-2                 5.997e-006  1.750e-008    -5.222    -7.757    -2.535
Ca              4.655e-001
   Ca+2                  4.654e-001  2.697e+000    -0.332     0.431     0.763
   CaCO3                 6.686e-005  6.686e-005    -4.175    -4.175     0.000
Cl              6.643e+000
   Cl-                   6.643e+000  4.254e+000     0.822     0.629    -0.194
Mg              1.609e-001
   Mg+2                  1.609e-001  1.563e+000    -0.794     0.194     0.988
   MgCO3                 2.318e-005  2.318e-005    -4.635    -4.635     0.000
   MgOH+                 1.442e-006  9.071e-007    -5.841    -6.042    -0.201
Na              5.402e+000
   Na+                   5.402e+000  1.120e+001     0.733     1.049     0.317
S(6)            4.725e-003
   SO4-2                 4.725e-003  1.900e-005    -2.326    -4.721    -2.396
   HSO4-                 9.523e-009  3.506e-009    -8.021    -8.455    -0.434

------------------------------Saturation indices-------------------------------

	Phase               SI log IAP  log KT

	Anhydrite         0.07   -4.29   -4.36  CaSO4
	Aragonite         0.89   -7.33   -8.22  CaCO3
	Bischofite       -3.85    0.61    4.46  MgCl2:6H2O
	Bloedite         -5.36   -7.71   -2.35  Na2Mg(SO4)2:4H2O
	Brucite          -5.78  -16.66  -10.88  Mg(OH)2
	Burkeite        -10.13  -10.90   -0.77  Na6CO3(SO4)2
	Calcite           1.08   -7.33   -8.41  CaCO3
	CO2(g)           -0.90   -2.37   -1.47  CO2
	Dolomite          2.19  -14.89  -17.08  CaMg(CO3)2
	Epsomite         -3.63   -5.51   -1.88  MgSO4:7H2O
	Gaylussite       -4.27  -13.69   -9.42  CaNa2(CO3)2:5H2O
	Glauberite       -1.67   -6.91   -5.25  Na2Ca(SO4)2
	Gypsum            0.01   -4.57   -4.58  CaSO4:2H2O
	H2O(g)           -1.65   -0.14    1.51  H2O
	Halite            0.11    1.68    1.57  NaCl
	Hexahydrite      -3.73   -5.37   -1.63  MgSO4:6H2O
	Kieserite        -4.54   -4.67   -0.12  MgSO4:H2O
	Labile_S         -4.14   -9.82   -5.67  Na4Ca(SO4)3:2H2O
	Leonhardite      -4.20   -5.09   -0.89  MgSO4:4H2O
	Magnesite         0.27   -7.56   -7.83  MgCO3
	Mirabilite       -2.81   -4.03   -1.21  Na2SO4:10H2O
	Nahcolite        -1.68  -12.42  -10.74  NaHCO3
	Natron           -6.24   -7.06   -0.82  Na2CO3:10H2O
	Nesquehonite     -2.82   -7.98   -5.17  MgCO3:3H2O
	Pentahydrite     -3.94   -5.23   -1.28  MgSO4:5H2O
	Pirssonite       -4.03  -13.27   -9.23  Na2Ca(CO3)2:2H2O
	Portlandite     -11.23  -16.42   -5.19  Ca(OH)2
	Trona            -6.98  -18.36  -11.38  Na3H(CO3)2:2H2O

-------------------------------------------------------
Beginning of initial exchange-composition calculations.
-------------------------------------------------------

Exchange 1.	

X               1.000e+000 mol

	                               Equiv-    Equivalent      Log 
	Species             Moles      alents      Fraction     Gamma

	NaX              9.006e-001  9.006e-001  9.006e-001     0.317
	CaX2             4.081e-002  8.162e-002  8.162e-002     0.763
	MgX2             8.900e-003  1.780e-002  1.780e-002     0.988

------------------------------------------------------
Beginning of initial surface-composition calculations.
------------------------------------------------------

Surface 1.	

Hfo           
	 6.289e-002  Surface charge, eq
	 3.371e-001  sigma, C/m**2
	 4.757e-002  psi, V
	-1.852e+000  -F*psi/RT
	 1.570e-001  exp(-F*psi/RT)
	 6.000e+002  specific area, m**2/g
	 1.800e+004  m**2 for  3.000e+001 g


Hfo_w         
	 7.000e-002  moles
	                                   Mole                     Log
	Species               Moles    Fraction    Molality    Molality

	Hfo_wOH2+        3.971e-002       0.567  3.971e-002      -1.401
	Hfo_wOMg+        2.133e-002       0.305  2.133e-002      -1.671
	Hfo_wOH          6.700e-003       0.096  6.700e-003      -2.174
	Hfo_wOCa+        2.069e-003       0.030  2.069e-003      -2.684
	Hfo_wSO4-        1.308e-004       0.002  1.308e-004      -3.884
	Hfo_wOHSO4-2     3.186e-005       0.000  3.186e-005      -4.497
	Hfo_wO-          2.590e-005       0.000  2.590e-005      -4.587

-----------------------------------------
Beginning of batch-reaction calculations.
-----------------------------------------

Reaction step 1.

Using solution 1.	Brine
Using exchange 1.	Exchange assemblage after simulation 1.
Using surface 1.	Surface assemblage after simulation 1.
Using pure phase assemblage 1.	

-------------------------------Phase assemblage--------------------------------

                                                      Moles in assemblage
Phase                  SI log IAP  log KT      Initial       Final       Delta

Calcite              0.00   -8.41   -8.41   1.000e-001  7.875e-002 -2.125e-002
Dolomite             0.00  -17.08  -17.08   1.600e+000  1.612e+000  1.243e-002

------------------------------Surface composition------------------------------

Hfo           
	 6.285e-002  Surface charge, eq
	 3.369e-001  sigma, C/m**2
	 4.756e-002  psi, V
	-1.851e+000  -F*psi/RT
	 1.571e-001  exp(-F*psi/RT)
	 6.000e+002  specific area, m**2/g
	 1.800e+004  m**2 for  3.000e+001 g


Hfo_w         
	 7.000e-002  moles
	                                   Mole                     Log
	Species               Moles    Fraction    Molality    Molality

	Hfo_wOH2+        4.202e-002       0.600  4.202e-002      -1.377
	Hfo_wOMg+        1.906e-002       0.272  1.906e-002      -1.720
	Hfo_wOH          6.725e-003       0.096  6.725e-003      -2.172
	Hfo_wOCa+        1.998e-003       0.029  1.999e-003      -2.699
	Hfo_wSO4-        1.377e-004       0.002  1.377e-004      -3.861
	Hfo_wOHSO4-2     3.182e-005       0.000  3.182e-005      -4.497
	Hfo_wO-          2.466e-005       0.000  2.466e-005      -4.608

-----------------------------Exchange composition------------------------------

X               1.000e+000 mol

	                               Equiv-    Equivalent      Log 
	Species             Moles      alents      Fraction     Gamma

	NaX              9.003e-001  9.003e-001  9.003e-001     0.316
	CaX2             4.150e-002  8.300e-002  8.300e-002     0.761
	MgX2             8.362e-003  1.672e-002  1.672e-002     0.986

-----------------------------Solution composition------------------------------

	Elements           Molality       Moles

	C                3.453e-004  3.453e-004
	Ca               4.737e-001  4.737e-001
	Cl               6.643e+000  6.643e+000
	Mg               1.513e-001  1.513e-001
	Na               5.402e+000  5.402e+000
	S                4.718e-003  4.718e-003

----------------------------Description of solution----------------------------

                                       pH  =   5.690      Charge balance
                                       pe  =   4.000      Adjusted to redox equilibrium
       Specific Conductance (uS/cm, 25 oC) = 494434
                          Density (g/cm3)  =   1.22186
                        Activity of water  =   0.724
                           Ionic strength  =  7.282e+000
                       Mass of water (kg)  =  1.000e+000
                 Total alkalinity (eq/kg)  =  2.412e-004
                       Total CO2 (mol/kg)  =  3.453e-004
                      Temperature (deg C)  =  25.000
                  Electrical balance (eq)  =  3.601e-005
 Percent error, 100*(Cat-|An|)/(Cat+|An|)  =   0.00
                               Iterations  =  19
                         Gamma iterations  =   4
                      Osmotic coefficient  =   1.41467
                         Density of water  =   0.99706
                                  Total H  = 1.110104e+002
                                  Total O  = 5.552489e+001

----------------------------Distribution of species----------------------------

                                                           MacInnes   MacInnes
	                               MacInnes    Log       Log         Log 
   Species                 Molality    Activity  Molality  Activity     Gamma

   H+                    1.993e-007  2.040e-006    -6.700    -5.690     1.010
   OH-                   2.386e-008  3.564e-009    -7.622    -8.448    -0.826
   H2O                   5.551e+001  7.239e-001     1.744    -0.140     0.000
C(4)            3.453e-004
   HCO3-                 2.244e-004  6.398e-005    -3.649    -4.194    -0.545
   CO2                   1.131e-004  3.922e-004    -3.947    -3.406     0.540
   CaCO3                 5.560e-006  5.560e-006    -5.255    -5.255     0.000
   MgCO3                 1.784e-006  1.784e-006    -5.749    -5.749     0.000
   CO3-2                 4.901e-007  1.436e-009    -6.310    -8.843    -2.533
Ca              4.737e-001
   Ca+2                  4.737e-001  2.733e+000    -0.324     0.437     0.761
   CaCO3                 5.560e-006  5.560e-006    -5.255    -5.255     0.000
Cl              6.643e+000
   Cl-                   6.643e+000  4.254e+000     0.822     0.629    -0.194
Mg              1.513e-001
   Mg+2                  1.513e-001  1.466e+000    -0.820     0.166     0.986
   MgCO3                 1.784e-006  1.784e-006    -5.749    -5.749     0.000
   MgOH+                 1.287e-006  8.075e-007    -5.891    -6.093    -0.202
Na              5.402e+000
   Na+                   5.402e+000  1.119e+001     0.733     1.049     0.316
S(6)            4.718e-003
   SO4-2                 4.718e-003  1.893e-005    -2.326    -4.723    -2.397
   HSO4-                 1.003e-008  3.680e-009    -7.999    -8.434    -0.435

------------------------------Saturation indices-------------------------------

	Phase               SI log IAP  log KT

	Anhydrite         0.08   -4.29   -4.36  CaSO4
	Aragonite        -0.19   -8.41   -8.22  CaCO3
	Bischofite       -3.87    0.58    4.46  MgCl2:6H2O
	Bloedite         -5.40   -7.74   -2.35  Na2Mg(SO4)2:4H2O
	Brucite          -5.85  -16.73  -10.88  Mg(OH)2
	Burkeite        -11.22  -11.99   -0.77  Na6CO3(SO4)2
	Calcite           0.00   -8.41   -8.41  CaCO3
	CO2(g)           -1.94   -3.41   -1.47  CO2
	Dolomite          0.00  -17.08  -17.08  CaMg(CO3)2
	Epsomite         -3.66   -5.54   -1.88  MgSO4:7H2O
	Gaylussite       -6.43  -15.85   -9.42  CaNa2(CO3)2:5H2O
	Glauberite       -1.67   -6.91   -5.25  Na2Ca(SO4)2
	Gypsum            0.01   -4.57   -4.58  CaSO4:2H2O
	H2O(g)           -1.65   -0.14    1.51  H2O
	Halite            0.11    1.68    1.57  NaCl
	Hexahydrite      -3.76   -5.40   -1.63  MgSO4:6H2O
	Kieserite        -4.57   -4.70   -0.12  MgSO4:H2O
	Labile_S         -4.14   -9.82   -5.67  Na4Ca(SO4)3:2H2O
	Leonhardite      -4.23   -5.12   -0.89  MgSO4:4H2O
	Magnesite        -0.84   -8.68   -7.83  MgCO3
	Mirabilite       -2.81   -4.03   -1.21  Na2SO4:10H2O
	Nahcolite        -2.74  -13.48  -10.74  NaHCO3
	Natron           -7.32   -8.15   -0.82  Na2CO3:10H2O
	Nesquehonite     -3.93   -9.10   -5.17  MgCO3:3H2O
	Pentahydrite     -3.97   -5.26   -1.28  MgSO4:5H2O
	Pirssonite       -6.20  -15.43   -9.23  Na2Ca(CO3)2:2H2O
	Portlandite     -11.27  -16.46   -5.19  Ca(OH)2
	Trona            -9.13  -20.51  -11.38  Na3H(CO3)2:2H2O

------------------
End of simulation.
------------------

------------------------------------
Reading input data for simulation 2.
------------------------------------

	SOLUTION 0 20 x precipitation
	        pH      4.6
	        pe      4.0     # O2(g)   -0.7
	        temp    25.
	        units   mmol/kgw
	        Ca      .191625
	        Mg      .035797
	        Na      .122668
	        Cl      .133704
	        C       .01096
	        S       .235153         charge
	EQUILIBRIUM_PHASES 0
	        Dolomite        0.0     1.6
	        Calcite         0.0     0.1
	        CO2(g)          -1.5    10.
	SAVE solution 0
	END
-------------------------------------------
Beginning of initial solution calculations.
-------------------------------------------

Initial solution 0.	20 x precipitation

-----------------------------Solution composition------------------------------

	Elements           Molality       Moles

	C                1.096e-005  1.096e-005
	Ca               1.916e-004  1.916e-004
	Cl               1.337e-004  1.337e-004
	Mg               3.580e-005  3.580e-005
	Na               1.227e-004  1.227e-004
	S                2.351e-004  2.351e-004  Charge balance

----------------------------Description of solution----------------------------

                                       pH  =   4.600    
                                       pe  =   4.000    
       Specific Conductance (uS/cm, 25 oC) = 84
                          Density (g/cm3)  =   0.99709
                        Activity of water  =   1.000
                           Ionic strength  =  1.066e-003
                       Mass of water (kg)  =  1.000e+000
                 Total alkalinity (eq/kg)  = -2.639e-005
                       Total CO2 (mol/kg)  =  1.096e-005
                      Temperature (deg C)  =  25.000
                  Electrical balance (eq)  =  5.732e-016
 Percent error, 100*(Cat-|An|)/(Cat+|An|)  =   0.00
                               Iterations  =  18
                         Gamma iterations  =   4
                      Osmotic coefficient  =   0.96082
                         Density of water  =   0.99706
                                  Total H  = 1.110125e+002
                                  Total O  = 5.550718e+001

----------------------------Distribution of species----------------------------

                                                           MacInnes   MacInnes
	                               MacInnes    Log       Log         Log 
   Species                 Molality    Activity  Molality  Activity     Gamma

   H+                    2.610e-005  2.512e-005    -4.583    -4.600    -0.017
   OH-                   4.161e-010  3.999e-010    -9.381    -9.398    -0.017
   H2O                   5.551e+001  1.000e+000     1.744    -0.000     0.000
C(4)            1.096e-005
   CO2                   1.076e-005  1.076e-005    -4.968    -4.968     0.000
   HCO3-                 2.042e-007  1.969e-007    -6.690    -6.706    -0.016
   CO3-2                 4.163e-013  3.589e-013   -12.381   -12.445    -0.064
   CaCO3                 8.242e-014  8.242e-014   -13.084   -13.084     0.000
   MgCO3                 9.268e-015  9.268e-015   -14.033   -14.033     0.000
Ca              1.916e-004
   Ca+2                  1.916e-004  1.621e-004    -3.718    -3.790    -0.073
   CaCO3                 8.242e-014  8.242e-014   -13.084   -13.084     0.000
Cl              1.337e-004
   Cl-                   1.337e-004  1.289e-004    -3.874    -3.890    -0.016
Mg              3.580e-005
   Mg+2                  3.580e-005  3.047e-005    -4.446    -4.516    -0.070
   MgOH+                 1.956e-012  1.883e-012   -11.709   -11.725    -0.016
   MgCO3                 9.268e-015  9.268e-015   -14.033   -14.033     0.000
Na              1.227e-004
   Na+                   1.227e-004  1.181e-004    -3.911    -3.928    -0.016
S(6)            2.351e-004
   SO4-2                 2.346e-004  1.989e-004    -3.630    -3.701    -0.072
   HSO4-                 4.938e-007  4.761e-007    -6.306    -6.322    -0.016

------------------------------Saturation indices-------------------------------

	Phase               SI log IAP  log KT

	Anhydrite        -3.13   -7.49   -4.36  CaSO4
	Aragonite        -8.02  -16.24   -8.22  CaCO3
	Bischofite      -16.75  -12.30    4.46  MgCl2:6H2O
	Bloedite        -17.43  -19.77   -2.35  Na2Mg(SO4)2:4H2O
	Brucite         -12.43  -23.31  -10.88  Mg(OH)2
	Burkeite        -42.64  -43.41   -0.77  Na6CO3(SO4)2
	Calcite          -7.83  -16.24   -8.41  CaCO3
	CO2(g)           -3.50   -4.97   -1.47  CO2
	Dolomite        -16.11  -33.20  -17.08  CaMg(CO3)2
	Epsomite         -6.34   -8.22   -1.88  MgSO4:7H2O
	Gaylussite      -27.11  -36.54   -9.42  CaNa2(CO3)2:5H2O
	Glauberite      -13.80  -19.05   -5.25  Na2Ca(SO4)2
	Gypsum           -2.91   -7.49   -4.58  CaSO4:2H2O
	H2O(g)           -1.51   -0.00    1.51  H2O
	Halite           -9.39   -7.82    1.57  NaCl
	Hexahydrite      -6.58   -8.22   -1.63  MgSO4:6H2O
	Kieserite        -8.09   -8.22   -0.12  MgSO4:H2O
	Labile_S        -24.93  -30.60   -5.67  Na4Ca(SO4)3:2H2O
	Leonhardite      -7.33   -8.22   -0.89  MgSO4:4H2O
	Magnesite        -9.13  -16.96   -7.83  MgCO3
	Mirabilite      -10.34  -11.56   -1.21  Na2SO4:10H2O
	Nahcolite       -10.23  -20.97  -10.74  NaHCO3
	Natron          -19.48  -20.30   -0.82  Na2CO3:10H2O
	Nesquehonite    -11.79  -16.96   -5.17  MgCO3:3H2O
	Pentahydrite     -6.93   -8.22   -1.28  MgSO4:5H2O
	Pirssonite      -27.30  -36.54   -9.23  Na2Ca(CO3)2:2H2O
	Portlandite     -17.40  -22.59   -5.19  Ca(OH)2
	Trona           -29.89  -41.27  -11.38  Na3H(CO3)2:2H2O

-----------------------------------------
Beginning of batch-reaction calculations.
-----------------------------------------

Reaction step 1.

Using solution 0.	20 x precipitation
Using pure phase assemblage 0.	

-------------------------------Phase assemblage--------------------------------

                                                      Moles in assemblage
Phase                  SI log IAP  log KT      Initial       Final       Delta

Calcite              0.00   -8.41   -8.41   1.000e-001  9.920e-002 -8.023e-004
CO2(g)              -1.50   -2.97   -1.47   1.000e+001  9.996e+000 -4.078e-003
Dolomite             0.00  -17.08  -17.08   1.600e+000  1.599e+000 -1.125e-003

-----------------------------Solution composition------------------------------

	Elements           Molality       Moles

	C                7.141e-003  7.140e-003
	Ca               2.119e-003  2.119e-003
	Cl               1.337e-004  1.337e-004
	Mg               1.161e-003  1.161e-003
	Na               1.227e-004  1.227e-004
	S                2.351e-004  2.351e-004

----------------------------Description of solution----------------------------

                                       pH  =   7.043      Charge balance
                                       pe  =   4.000      Adjusted to redox equilibrium
       Specific Conductance (uS/cm, 25 oC) = 613
                          Density (g/cm3)  =   0.99747
                        Activity of water  =   1.000
                           Ionic strength  =  1.018e-002
                       Mass of water (kg)  =  9.999e-001
                 Total alkalinity (eq/kg)  =  6.077e-003
                       Total CO2 (mol/kg)  =  7.141e-003
                      Temperature (deg C)  =  25.000
                  Electrical balance (eq)  =  4.634e-014
 Percent error, 100*(Cat-|An|)/(Cat+|An|)  =   0.00
                               Iterations  =  14
                         Gamma iterations  =   4
                      Osmotic coefficient  =   0.94032
                         Density of water  =   0.99706
                                  Total H  = 1.110125e+002
                                  Total O  = 5.552449e+001

----------------------------Distribution of species----------------------------

                                                           MacInnes   MacInnes
	                               MacInnes    Log       Log         Log 
   Species                 Molality    Activity  Molality  Activity     Gamma

   OH-                   1.263e-007  1.109e-007    -6.899    -6.955    -0.056
   H+                    1.009e-007  9.058e-008    -6.996    -7.043    -0.047
   H2O                   5.551e+001  9.998e-001     1.744    -0.000     0.000
C(4)            7.141e-003
   HCO3-                 6.054e-003  5.464e-003    -2.218    -2.263    -0.045
   CO2                   1.075e-003  1.077e-003    -2.968    -2.968     0.001
   CaCO3                 5.560e-006  5.560e-006    -5.255    -5.255     0.000
   CO3-2                 4.399e-006  2.762e-006    -5.357    -5.559    -0.202
   MgCO3                 1.784e-006  1.784e-006    -5.749    -5.749     0.000
Ca              2.119e-003
   Ca+2                  2.113e-003  1.421e-003    -2.675    -2.847    -0.172
   CaCO3                 5.560e-006  5.560e-006    -5.255    -5.255     0.000
Cl              1.337e-004
   Cl-                   1.337e-004  1.203e-004    -3.874    -3.920    -0.046
Mg              1.161e-003
   Mg+2                  1.159e-003  7.621e-004    -2.936    -3.118    -0.182
   MgCO3                 1.784e-006  1.784e-006    -5.749    -5.749     0.000
   MgOH+                 1.456e-008  1.306e-008    -7.837    -7.884    -0.047
Na              1.227e-004
   Na+                   1.227e-004  1.102e-004    -3.911    -3.958    -0.046
S(6)            2.351e-004
   SO4-2                 2.351e-004  1.302e-004    -3.629    -3.885    -0.257
   HSO4-                 1.245e-009  1.124e-009    -8.905    -8.949    -0.044

------------------------------Saturation indices-------------------------------

	Phase               SI log IAP  log KT

	Anhydrite        -2.37   -6.73   -4.36  CaSO4
	Aragonite        -0.19   -8.41   -8.22  CaCO3
	Bischofite      -15.41  -10.96    4.46  MgCl2:6H2O
	Bloedite        -16.46  -18.80   -2.35  Na2Mg(SO4)2:4H2O
	Brucite          -6.15  -17.03  -10.88  Mg(OH)2
	Burkeite        -36.30  -37.08   -0.77  Na6CO3(SO4)2
	Calcite           0.00   -8.41   -8.41  CaCO3
	CO2(g)           -1.50   -2.97   -1.47  CO2
	Dolomite          0.00  -17.08  -17.08  CaMg(CO3)2
	Epsomite         -5.12   -7.00   -1.88  MgSO4:7H2O
	Gaylussite      -12.46  -21.88   -9.42  CaNa2(CO3)2:5H2O
	Glauberite      -13.29  -18.53   -5.25  Na2Ca(SO4)2
	Gypsum           -2.15   -6.73   -4.58  CaSO4:2H2O
	H2O(g)           -1.51   -0.00    1.51  H2O
	Halite           -9.45   -7.88    1.57  NaCl
	Hexahydrite      -5.37   -7.00   -1.63  MgSO4:6H2O
	Kieserite        -6.88   -7.00   -0.12  MgSO4:H2O
	Labile_S        -24.66  -30.33   -5.67  Na4Ca(SO4)3:2H2O
	Leonhardite      -6.12   -7.00   -0.89  MgSO4:4H2O
	Magnesite        -0.84   -8.68   -7.83  MgCO3
	Mirabilite      -10.59  -11.80   -1.21  Na2SO4:10H2O
	Nahcolite        -5.82  -16.56  -10.74  NaHCO3
	Natron          -12.65  -13.47   -0.82  Na2CO3:10H2O
	Nesquehonite     -3.51   -8.68   -5.17  MgCO3:3H2O
	Pentahydrite     -5.72   -7.00   -1.28  MgSO4:5H2O
	Pirssonite      -12.65  -21.88   -9.23  Na2Ca(CO3)2:2H2O
	Portlandite     -11.57  -16.76   -5.19  Ca(OH)2
	Trona           -18.65  -30.03  -11.38  Na3H(CO3)2:2H2O

------------------
End of simulation.
------------------

------------------------------------
Reading input data for simulation 3.
------------------------------------

	SURFACE_SPECIES
	        Hfo_wOH + Mg+2 = Hfo_wOMg+ + H+
	        log_k -15.
	        Hfo_wOH + Ca+2 = Hfo_wOCa+ + H+
	        log_k -15.
	PRINT
		status false
	ADVECTION
	        cells 1
	        shifts 200
	SELECTED_OUTPUT
	        file ex10_pz.pun
	        totals Ca Mg Na Cl C S # As
	END
------------------------------------
Beginning of advection calculations.
------------------------------------

Beginning of advection time step 1, cumulative pore volumes 1.000000.

Cell 1.

Using solution 1.	Solution after simulation 2.
Using exchange 1.	Exchange assemblage after simulation 1.
Using surface 1.	Surface assemblage after simulation 1.
Using pure phase assemblage 1.	

-------------------------------Phase assemblage--------------------------------

                                                      Moles in assemblage
Phase                  SI log IAP  log KT      Initial       Final       Delta

Calcite              0.00   -8.41   -8.41   1.000e-001  7.124e-002 -2.876e-002
Dolomite            -0.00  -17.08  -17.08   1.600e+000  1.607e+000  6.964e-003

------------------------------Surface composition------------------------------

Hfo           
	 1.819e-003  Surface charge, eq
	 9.752e-003  sigma, C/m**2
	 1.811e-002  psi, V
	-7.051e-001  -F*psi/RT
	 4.941e-001  exp(-F*psi/RT)
	 6.000e+002  specific area, m**2/g
	 1.800e+004  m**2 for  3.000e+001 g


Hfo_w         
	 7.000e-002  moles
	                                   Mole                     Log
	Species               Moles    Fraction    Molality    Molality

	Hfo_wOH          5.351e-002       0.764  5.352e-002      -1.272
	Hfo_wOH2+        9.224e-003       0.132  9.224e-003      -2.035
	Hfo_wO-          7.112e-003       0.102  7.113e-003      -2.148
	Hfo_wOHSO4-2     1.400e-004       0.002  1.400e-004      -3.854
	Hfo_wSO4-        1.212e-005       0.000  1.212e-005      -4.917
	Hfo_wOCa+        1.366e-013       0.000  1.366e-013     -12.865
	Hfo_wOMg+        7.325e-014       0.000  7.325e-014     -13.135

-----------------------------Exchange composition------------------------------

X               1.000e+000 mol

	                               Equiv-    Equivalent      Log 
	Species             Moles      alents      Fraction     Gamma

	NaX              8.183e-001  8.183e-001  8.183e-001    -0.087
	CaX2             6.657e-002  1.331e-001  1.331e-001    -0.365
	MgX2             2.430e-002  4.860e-002  4.860e-002    -0.398

-----------------------------Solution composition------------------------------

	Elements           Molality       Moles

	C                2.197e-002  2.197e-002
	Ca               2.198e-004  2.198e-004
	Cl               1.337e-004  1.337e-004
	Mg               1.257e-004  1.257e-004
	Na               8.245e-002  8.244e-002
	S                2.456e-004  2.456e-004

----------------------------Description of solution----------------------------

                                       pH  =   7.747      Charge balance
                                       pe  =   4.000      Adjusted to redox equilibrium
       Specific Conductance (uS/cm, 25 oC) = 4534
                          Density (g/cm3)  =   0.99983
                        Activity of water  =   0.998
                           Ionic strength  =  5.327e-002
                       Mass of water (kg)  =  9.999e-001
                 Total alkalinity (eq/kg)  =  2.144e-002
                       Total CO2 (mol/kg)  =  2.197e-002
                      Temperature (deg C)  =  25.000
                  Electrical balance (eq)  =  6.107e-002
 Percent error, 100*(Cat-|An|)/(Cat+|An|)  =  58.07
                               Iterations  =  25
                         Gamma iterations  =   5
                      Osmotic coefficient  =   0.93062
                         Density of water  =   0.99706
                                  Total H  = 1.110265e+002
                                  Total O  = 5.556890e+001

----------------------------Distribution of species----------------------------

                                                           MacInnes   MacInnes
	                               MacInnes    Log       Log         Log 
   Species                 Molality    Activity  Molality  Activity     Gamma

   OH-                   6.935e-007  5.605e-007    -6.159    -6.251    -0.092
   H+                    2.182e-008  1.789e-008    -7.661    -7.747    -0.086
   H2O                   5.551e+001  9.982e-001     1.744    -0.001     0.000
C(4)            2.197e-002
   HCO3-                 2.123e-002  1.659e-002    -1.673    -1.780    -0.107
   CO2                   6.362e-004  6.469e-004    -3.196    -3.189     0.007
   CO3-2                 9.681e-005  4.246e-005    -4.014    -4.372    -0.358
   CaCO3                 5.560e-006  5.560e-006    -5.255    -5.255     0.000
   MgCO3                 1.784e-006  1.784e-006    -5.749    -5.749     0.000
Ca              2.198e-004
   Ca+2                  2.142e-004  9.242e-005    -3.669    -4.034    -0.365
   CaCO3                 5.560e-006  5.560e-006    -5.255    -5.255     0.000
Cl              1.337e-004
   Cl-                   1.337e-004  1.084e-004    -3.874    -3.965    -0.091
Mg              1.257e-004
   Mg+2                  1.239e-004  4.957e-005    -3.907    -4.305    -0.398
   MgCO3                 1.784e-006  1.784e-006    -5.749    -5.749     0.000
   MgOH+                 5.267e-009  4.293e-009    -8.278    -8.367    -0.089
Na              8.245e-002
   Na+                   8.245e-002  6.741e-002    -1.084    -1.171    -0.087
S(6)            2.456e-004
   SO4-2                 2.456e-004  1.036e-004    -3.610    -3.985    -0.375
   HSO4-                 2.156e-010  1.765e-010    -9.666    -9.753    -0.087

------------------------------Saturation indices-------------------------------

	Phase               SI log IAP  log KT

	Anhydrite        -3.66   -8.02   -4.36  CaSO4
	Aragonite        -0.19   -8.41   -8.22  CaCO3
	Bischofite      -16.69  -12.24    4.46  MgCl2:6H2O
	Bloedite        -12.27  -14.62   -2.35  Na2Mg(SO4)2:4H2O
	Brucite          -5.93  -16.81  -10.88  Mg(OH)2
	Burkeite        -18.60  -19.37   -0.77  Na6CO3(SO4)2
	Calcite           0.00   -8.41   -8.41  CaCO3
	CO2(g)           -1.72   -3.19   -1.47  CO2
	Dolomite         -0.00  -17.08  -17.08  CaMg(CO3)2
	Epsomite         -6.41   -8.29   -1.88  MgSO4:7H2O
	Gaylussite       -5.70  -15.12   -9.42  CaNa2(CO3)2:5H2O
	Glauberite       -9.10  -14.35   -5.25  Na2Ca(SO4)2
	Gypsum           -3.44   -8.02   -4.58  CaSO4:2H2O
	H2O(g)           -1.51   -0.00    1.51  H2O
	Halite           -6.71   -5.14    1.57  NaCl
	Hexahydrite      -6.66   -8.29   -1.63  MgSO4:6H2O
	Kieserite        -8.17   -8.29   -0.12  MgSO4:H2O
	Labile_S        -15.00  -20.68   -5.67  Na4Ca(SO4)3:2H2O
	Leonhardite      -7.41   -8.29   -0.89  MgSO4:4H2O
	Magnesite        -0.84   -8.68   -7.83  MgCO3
	Mirabilite       -5.12   -6.33   -1.21  Na2SO4:10H2O
	Nahcolite        -2.55  -13.29  -10.74  NaHCO3
	Natron           -5.90   -6.72   -0.82  Na2CO3:10H2O
	Nesquehonite     -3.51   -8.68   -5.17  MgCO3:3H2O
	Pentahydrite     -7.01   -8.29   -1.28  MgSO4:5H2O
	Pirssonite       -5.89  -15.12   -9.23  Na2Ca(CO3)2:2H2O
	Portlandite     -11.35  -16.54   -5.19  Ca(OH)2
	Trona            -8.62  -20.01  -11.38  Na3H(CO3)2:2H2O

Beginning of advection time step 2, cumulative pore volumes 2.000000.

Cell 1.

Using solution 1.	Solution after simulation 2.
Using exchange 1.	Exchange assemblage after simulation 3.
Using surface 1.	Surface assemblage after simulation 3.
Using pure phase assemblage 1.	Pure-phase assemblage after simulation 3.

-------------------------------Phase assemblage--------------------------------

                                                      Moles in assemblage
Phase                  SI log IAP  log KT      Initial       Final       Delta

Calcite              0.00   -8.41   -8.41   7.124e-002  6.644e-002 -4.804e-003
Dolomite             0.00  -17.08  -17.08   1.607e+000  1.606e+000 -1.033e-003

------------------------------Surface composition------------------------------

Hfo           
	-2.919e-003  Surface charge, eq
	-1.565e-002  sigma, C/m**2
	-4.387e-002  psi, V
	 1.707e+000  -F*psi/RT
	 5.515e+000  exp(-F*psi/RT)
	 6.000e+002  specific area, m**2/g
	 1.800e+004  m**2 for  3.000e+001 g


Hfo_w         
	 7.000e-002  moles
	                                   Mole                     Log
	Species               Moles    Fraction    Molality    Molality

	Hfo_wOH          5.353e-002       0.765  5.354e-002      -1.271
	Hfo_wO-          9.690e-003       0.138  9.690e-003      -2.014
	Hfo_wOH2+        6.775e-003       0.097  6.776e-003      -2.169
	Hfo_wOHSO4-2     2.344e-006       0.000  2.344e-006      -5.630
	Hfo_wSO4-        1.488e-007       0.000  1.488e-007      -6.827
	Hfo_wOCa+        2.226e-012       0.000  2.227e-012     -11.652
	Hfo_wOMg+        1.194e-012       0.000  1.194e-012     -11.923

-----------------------------Exchange composition------------------------------

X               1.000e+000 mol

	                               Equiv-    Equivalent      Log 
	Species             Moles      alents      Fraction     Gamma

	NaX              7.980e-001  7.980e-001  7.980e-001    -0.061
	CaX2             7.450e-002  1.490e-001  1.490e-001    -0.238
	MgX2             2.648e-002  5.297e-002  5.297e-002    -0.260

-----------------------------Solution composition------------------------------

	Elements           Molality       Moles

	C                1.401e-002  1.401e-002
	Ca               2.093e-005  2.093e-005
	Cl               1.337e-004  1.337e-004
	Mg               1.045e-005  1.045e-005
	Na               2.036e-002  2.036e-002
	S                3.848e-004  3.847e-004

----------------------------Description of solution----------------------------

                                       pH  =   8.929      Charge balance
                                       pe  =   4.000      Adjusted to redox equilibrium
       Specific Conductance (uS/cm, 25 oC) = 1619
                          Density (g/cm3)  =   0.99810
                        Activity of water  =   0.999
                           Ionic strength  =  1.923e-002
                       Mass of water (kg)  =  9.999e-001
                 Total alkalinity (eq/kg)  =  1.478e-002
                       Total CO2 (mol/kg)  =  1.401e-002
                      Temperature (deg C)  =  25.000
                  Electrical balance (eq)  =  4.738e-003
 Percent error, 100*(Cat-|An|)/(Cat+|An|)  =  13.14
                               Iterations  =  29
                         Gamma iterations  =   6
                      Osmotic coefficient  =   0.95058
                         Density of water  =   0.99706
                                  Total H  = 1.110175e+002
                                  Total O  = 5.554568e+001

----------------------------Distribution of species----------------------------

                                                           MacInnes   MacInnes
	                               MacInnes    Log       Log         Log 
   Species                 Molality    Activity  Molality  Activity     Gamma

   OH-                   9.809e-006  8.530e-006    -5.008    -5.069    -0.061
   H+                    1.357e-009  1.177e-009    -8.867    -8.929    -0.062
   H2O                   5.551e+001  9.994e-001     1.744    -0.000     0.000
C(4)            1.401e-002
   HCO3-                 1.319e-002  1.137e-002    -1.880    -1.944    -0.065
   CO3-2                 7.802e-004  4.421e-004    -3.108    -3.354    -0.247
   CO2                   2.899e-005  2.911e-005    -4.538    -4.536     0.002
   CaCO3                 5.560e-006  5.560e-006    -5.255    -5.255     0.000
   MgCO3                 1.784e-006  1.784e-006    -5.749    -5.749     0.000
Ca              2.093e-005
   Ca+2                  1.537e-005  8.876e-006    -4.813    -5.052    -0.238
   CaCO3                 5.560e-006  5.560e-006    -5.255    -5.255     0.000
Cl              1.337e-004
   Cl-                   1.337e-004  1.164e-004    -3.874    -3.934    -0.060
Mg              1.045e-005
   Mg+2                  8.658e-006  4.761e-006    -5.063    -5.322    -0.260
   MgCO3                 1.784e-006  1.784e-006    -5.749    -5.749     0.000
   MgOH+                 7.247e-009  6.276e-009    -8.140    -8.202    -0.062
Na              2.036e-002
   Na+                   2.036e-002  1.770e-002    -1.691    -1.752    -0.061
S(6)            3.848e-004
   SO4-2                 3.848e-004  2.160e-004    -3.415    -3.666    -0.251
   HSO4-                 2.775e-011  2.422e-011   -10.557   -10.616    -0.059

------------------------------Saturation indices-------------------------------

	Phase               SI log IAP  log KT

	Anhydrite        -4.36   -8.72   -4.36  CaSO4
	Aragonite        -0.19   -8.41   -8.22  CaCO3
	Bischofite      -17.65  -13.19    4.46  MgCl2:6H2O
	Bloedite        -13.81  -16.16   -2.35  Na2Mg(SO4)2:4H2O
	Brucite          -4.58  -15.46  -10.88  Mg(OH)2
	Burkeite        -20.43  -21.20   -0.77  Na6CO3(SO4)2
	Calcite           0.00   -8.41   -8.41  CaCO3
	CO2(g)           -3.07   -4.54   -1.47  CO2
	Dolomite          0.00  -17.08  -17.08  CaMg(CO3)2
	Epsomite         -7.11   -8.99   -1.88  MgSO4:7H2O
	Gaylussite       -5.85  -15.27   -9.42  CaNa2(CO3)2:5H2O
	Glauberite      -10.64  -15.89   -5.25  Na2Ca(SO4)2
	Gypsum           -4.14   -8.72   -4.58  CaSO4:2H2O
	H2O(g)           -1.51   -0.00    1.51  H2O
	Halite           -7.26   -5.69    1.57  NaCl
	Hexahydrite      -7.35   -8.99   -1.63  MgSO4:6H2O
	Kieserite        -8.87   -8.99   -0.12  MgSO4:H2O
	Labile_S        -17.39  -23.06   -5.67  Na4Ca(SO4)3:2H2O
	Leonhardite      -8.10   -8.99   -0.89  MgSO4:4H2O
	Magnesite        -0.84   -8.68   -7.83  MgCO3
	Mirabilite       -5.96   -7.17   -1.21  Na2SO4:10H2O
	Nahcolite        -3.29  -14.04  -10.74  NaHCO3
	Natron           -6.04   -6.86   -0.82  Na2CO3:10H2O
	Nesquehonite     -3.51   -8.68   -5.17  MgCO3:3H2O
	Pentahydrite     -7.70   -8.99   -1.28  MgSO4:5H2O
	Pirssonite       -6.03  -15.27   -9.23  Na2Ca(CO3)2:2H2O
	Portlandite     -10.00  -15.19   -5.19  Ca(OH)2
	Trona            -9.51  -20.89  -11.38  Na3H(CO3)2:2H2O

Beginning of advection time step 3, cumulative pore volumes 3.000000.

Cell 1.

Using solution 1.	Solution after simulation 2.
Using exchange 1.	Exchange assemblage after simulation 3.
Using surface 1.	Surface assemblage after simulation 3.
Using pure phase assemblage 1.	Pure-phase assemblage after simulation 3.

-------------------------------Phase assemblage--------------------------------

                                                      Moles in assemblage
Phase                  SI log IAP  log KT      Initial       Final       Delta

Calcite              0.00   -8.41   -8.41   6.644e-002  6.353e-002 -2.912e-003
Dolomite             0.00  -17.08  -17.08   1.606e+000  1.606e+000 -4.278e-004

------------------------------Surface composition------------------------------

Hfo           
	-4.296e-003  Surface charge, eq
	-2.303e-002  sigma, C/m**2
	-6.412e-002  psi, V
	 2.496e+000  -F*psi/RT
	 1.213e+001  exp(-F*psi/RT)
	 6.000e+002  specific area, m**2/g
	 1.800e+004  m**2 for  3.000e+001 g


Hfo_w         
	 7.000e-002  moles
	                                   Mole                     Log
	Species               Moles    Fraction    Molality    Molality

	Hfo_wOH          5.330e-002       0.761  5.331e-002      -1.273
	Hfo_wO-          1.050e-002       0.150  1.050e-002      -1.979
	Hfo_wOH2+        6.201e-003       0.089  6.201e-003      -2.208
	Hfo_wOHSO4-2     3.162e-007       0.000  3.162e-007      -6.500
	Hfo_wSO4-        1.844e-008       0.000  1.845e-008      -7.734
	Hfo_wOCa+        6.598e-012       0.000  6.598e-012     -11.181
	Hfo_wOMg+        3.539e-012       0.000  3.539e-012     -11.451

-----------------------------Exchange composition------------------------------

X               1.000e+000 mol

	                               Equiv-    Equivalent      Log 
	Species             Moles      alents      Fraction     Gamma

	NaX              7.840e-001  7.840e-001  7.840e-001    -0.055
	CaX2             7.995e-002  1.599e-001  1.599e-001    -0.218
	MgX2             2.806e-002  5.613e-002  5.613e-002    -0.234

-----------------------------Solution composition------------------------------

	Elements           Molality       Moles

	C                1.091e-002  1.091e-002
	Ca               1.385e-005  1.385e-005
	Cl               1.337e-004  1.337e-004
	Mg               6.404e-006  6.404e-006
	Na               1.418e-002  1.418e-002
	S                2.373e-004  2.373e-004

----------------------------Description of solution----------------------------

                                       pH  =   9.308      Charge balance
                                       pe  =   4.000      Adjusted to redox equilibrium
       Specific Conductance (uS/cm, 25 oC) = 1244
                          Density (g/cm3)  =   0.99784
                        Activity of water  =   1.000
                           Ionic strength  =  1.507e-002
                       Mass of water (kg)  =  9.999e-001
                 Total alkalinity (eq/kg)  =  1.223e-002
                       Total CO2 (mol/kg)  =  1.091e-002
                      Temperature (deg C)  =  25.000
                  Electrical balance (eq)  =  1.377e-003
 Percent error, 100*(Cat-|An|)/(Cat+|An|)  =   5.09
                               Iterations  =  27
                         Gamma iterations  =   6
                      Osmotic coefficient  =   0.95230
                         Density of water  =   0.99706
                                  Total H  = 1.110138e+002
                                  Total O  = 5.553580e+001

----------------------------Distribution of species----------------------------

                                                           MacInnes   MacInnes
	                               MacInnes    Log       Log         Log 
   Species                 Molality    Activity  Molality  Activity     Gamma

   OH-                   2.315e-005  2.042e-005    -4.635    -4.690    -0.054
   H+                    5.603e-010  4.918e-010    -9.252    -9.308    -0.057
   H2O                   5.551e+001  9.996e-001     1.744    -0.000     0.000
C(4)            1.091e-002
   HCO3-                 9.591e-003  8.401e-003    -2.018    -2.076    -0.058
   CO3-2                 1.302e-003  7.822e-004    -2.885    -3.107    -0.221
   CO2                   8.964e-006  8.990e-006    -5.047    -5.046     0.001
   CaCO3                 5.560e-006  5.560e-006    -5.255    -5.255     0.000
   MgCO3                 1.784e-006  1.784e-006    -5.749    -5.749     0.000
Ca              1.385e-005
   Ca+2                  8.287e-006  5.017e-006    -5.082    -5.300    -0.218
   CaCO3                 5.560e-006  5.560e-006    -5.255    -5.255     0.000
Cl              1.337e-004
   Cl-                   1.337e-004  1.180e-004    -3.874    -3.928    -0.054
Mg              6.404e-006
   Mg+2                  4.611e-006  2.691e-006    -5.336    -5.570    -0.234
   MgCO3                 1.784e-006  1.784e-006    -5.749    -5.749     0.000
   MgOH+                 9.682e-009  8.491e-009    -8.014    -8.071    -0.057
Na              1.418e-002
   Na+                   1.418e-002  1.249e-002    -1.848    -1.903    -0.055
S(6)            2.373e-004
   SO4-2                 2.373e-004  1.416e-004    -3.625    -3.849    -0.224
   HSO4-                 7.505e-012  6.634e-012   -11.125   -11.178    -0.054

------------------------------Saturation indices-------------------------------

	Phase               SI log IAP  log KT

	Anhydrite        -4.79   -9.15   -4.36  CaSO4
	Aragonite        -0.19   -8.41   -8.22  CaCO3
	Bischofite      -17.88  -13.43    4.46  MgCl2:6H2O
	Bloedite        -14.73  -17.08   -2.35  Na2Mg(SO4)2:4H2O
	Brucite          -4.07  -14.95  -10.88  Mg(OH)2
	Burkeite        -21.45  -22.23   -0.77  Na6CO3(SO4)2
	Calcite           0.00   -8.41   -8.41  CaCO3
	CO2(g)           -3.58   -5.05   -1.47  CO2
	Dolomite          0.00  -17.08  -17.08  CaMg(CO3)2
	Epsomite         -7.54   -9.42   -1.88  MgSO4:7H2O
	Gaylussite       -5.90  -15.32   -9.42  CaNa2(CO3)2:5H2O
	Glauberite      -11.56  -16.80   -5.25  Na2Ca(SO4)2
	Gypsum           -4.57   -9.15   -4.58  CaSO4:2H2O
	H2O(g)           -1.51   -0.00    1.51  H2O
	Halite           -7.40   -5.83    1.57  NaCl
	Hexahydrite      -7.79   -9.42   -1.63  MgSO4:6H2O
	Kieserite        -9.30   -9.42   -0.12  MgSO4:H2O
	Labile_S        -18.79  -24.46   -5.67  Na4Ca(SO4)3:2H2O
	Leonhardite      -8.53   -9.42   -0.89  MgSO4:4H2O
	Magnesite        -0.84   -8.68   -7.83  MgCO3
	Mirabilite       -6.44   -7.66   -1.21  Na2SO4:10H2O
	Nahcolite        -3.58  -14.32  -10.74  NaHCO3
	Natron           -6.09   -6.92   -0.82  Na2CO3:10H2O
	Nesquehonite     -3.51   -8.68   -5.17  MgCO3:3H2O
	Pentahydrite     -8.13   -9.42   -1.28  MgSO4:5H2O
	Pirssonite       -6.09  -15.32   -9.23  Na2Ca(CO3)2:2H2O
	Portlandite      -9.49  -14.68   -5.19  Ca(OH)2
	Trona            -9.85  -21.23  -11.38  Na3H(CO3)2:2H2O

Beginning of advection time step 4, cumulative pore volumes 4.000000.

Cell 1.

Using solution 1.	Solution after simulation 2.
Using exchange 1.	Exchange assemblage after simulation 3.
Using surface 1.	Surface assemblage after simulation 3.
Using pure phase assemblage 1.	Pure-phase assemblage after simulation 3.

-------------------------------Phase assemblage--------------------------------

                                                      Moles in assemblage
Phase                  SI log IAP  log KT      Initial       Final       Delta

Calcite              0.00   -8.41   -8.41   6.353e-002  6.131e-002 -2.217e-003
Dolomite             0.00  -17.08  -17.08   1.606e+000  1.605e+000 -3.799e-004

------------------------------Surface composition------------------------------

Hfo           
	-4.708e-003  Surface charge, eq
	-2.524e-002  sigma, C/m**2
	-6.959e-002  psi, V
	 2.709e+000  -F*psi/RT
	 1.501e+001  exp(-F*psi/RT)
	 6.000e+002  specific area, m**2/g
	 1.800e+004  m**2 for  3.000e+001 g


Hfo_w         
	 7.000e-002  moles
	                                   Mole                     Log
	Species               Moles    Fraction    Molality    Molality

	Hfo_wOH          5.322e-002       0.760  5.322e-002      -1.274
	Hfo_wO-          1.075e-002       0.154  1.075e-002      -1.969
	Hfo_wOH2+        6.038e-003       0.086  6.038e-003      -2.219
	Hfo_wOHSO4-2     2.076e-007       0.000  2.076e-007      -6.683
	Hfo_wSO4-        1.181e-008       0.000  1.181e-008      -7.928
	Hfo_wOCa+        9.017e-012       0.000  9.017e-012     -11.045
	Hfo_wOMg+        4.836e-012       0.000  4.837e-012     -11.315

-----------------------------Exchange composition------------------------------

X               1.000e+000 mol

	                               Equiv-    Equivalent      Log 
	Species             Moles      alents      Fraction     Gamma

	NaX              7.715e-001  7.715e-001  7.715e-001    -0.054
	CaX2             8.465e-002  1.693e-001  1.693e-001    -0.214
	MgX2             2.960e-002  5.920e-002  5.920e-002    -0.228

-----------------------------Solution composition------------------------------

	Elements           Molality       Moles

	C                1.012e-002  1.012e-002
	Ca               1.271e-005  1.271e-005
	Cl               1.337e-004  1.337e-004
	Mg               5.760e-006  5.759e-006
	Na               1.260e-002  1.260e-002
	S                2.352e-004  2.352e-004

----------------------------Description of solution----------------------------

                                       pH  =   9.412      Charge balance
                                       pe  =   4.000      Adjusted to redox equilibrium
       Specific Conductance (uS/cm, 25 oC) = 1156
                          Density (g/cm3)  =   0.99778
                        Activity of water  =   1.000
                           Ionic strength  =  1.413e-002
                       Mass of water (kg)  =  9.999e-001
                 Total alkalinity (eq/kg)  =  1.162e-002
                       Total CO2 (mol/kg)  =  1.012e-002
                      Temperature (deg C)  =  25.000
                  Electrical balance (eq)  =  4.119e-004
 Percent error, 100*(Cat-|An|)/(Cat+|An|)  =   1.66
                               Iterations  =  43
                         Gamma iterations  =   6
                      Osmotic coefficient  =   0.95205
                         Density of water  =   0.99706
                                  Total H  = 1.110129e+002
                                  Total O  = 5.553342e+001

----------------------------Distribution of species----------------------------

                                                           MacInnes   MacInnes
	                               MacInnes    Log       Log         Log 
   Species                 Molality    Activity  Molality  Activity     Gamma

   OH-                   2.927e-005  2.591e-005    -4.534    -4.587    -0.053
   H+                    4.404e-010  3.876e-010    -9.356    -9.412    -0.055
   H2O                   5.551e+001  9.996e-001     1.744    -0.000     0.000
C(4)            1.012e-002
   HCO3-                 8.633e-003  7.594e-003    -2.064    -2.120    -0.056
   CO3-2                 1.471e-003  8.971e-004    -2.832    -3.047    -0.215
   CO2                   6.388e-006  6.405e-006    -5.195    -5.194     0.001
   CaCO3                 5.560e-006  5.560e-006    -5.255    -5.255     0.000
   MgCO3                 1.784e-006  1.784e-006    -5.749    -5.749     0.000
Ca              1.271e-005
   Ca+2                  7.155e-006  4.375e-006    -5.145    -5.359    -0.214
   CaCO3                 5.560e-006  5.560e-006    -5.255    -5.255     0.000
Cl              1.337e-004
   Cl-                   1.337e-004  1.184e-004    -3.874    -3.927    -0.053
Mg              5.760e-006
   Mg+2                  3.965e-006  2.346e-006    -5.402    -5.630    -0.228
   MgCO3                 1.784e-006  1.784e-006    -5.749    -5.749     0.000
   MgOH+                 1.068e-008  9.394e-009    -7.971    -8.027    -0.056
Na              1.260e-002
   Na+                   1.260e-002  1.113e-002    -1.900    -1.953    -0.054
S(6)            2.352e-004
   SO4-2                 2.352e-004  1.426e-004    -3.629    -3.846    -0.217
   HSO4-                 5.937e-012  5.266e-012   -11.226   -11.279    -0.052

------------------------------Saturation indices-------------------------------

	Phase               SI log IAP  log KT

	Anhydrite        -4.84   -9.20   -4.36  CaSO4
	Aragonite        -0.19   -8.41   -8.22  CaCO3
	Bischofite      -17.94  -13.48    4.46  MgCl2:6H2O
	Bloedite        -14.88  -17.23   -2.35  Na2Mg(SO4)2:4H2O
	Brucite          -3.92  -14.80  -10.88  Mg(OH)2
	Burkeite        -21.69  -22.46   -0.77  Na6CO3(SO4)2
	Calcite           0.00   -8.41   -8.41  CaCO3
	CO2(g)           -3.73   -5.19   -1.47  CO2
	Dolomite          0.00  -17.08  -17.08  CaMg(CO3)2
	Epsomite         -7.60   -9.48   -1.88  MgSO4:7H2O
	Gaylussite       -5.94  -15.36   -9.42  CaNa2(CO3)2:5H2O
	Glauberite      -11.71  -16.96   -5.25  Na2Ca(SO4)2
	Gypsum           -4.62   -9.21   -4.58  CaSO4:2H2O
	H2O(g)           -1.51   -0.00    1.51  H2O
	Halite           -7.45   -5.88    1.57  NaCl
	Hexahydrite      -7.84   -9.48   -1.63  MgSO4:6H2O
	Kieserite        -9.35   -9.48   -0.12  MgSO4:H2O
	Labile_S        -19.04  -24.71   -5.67  Na4Ca(SO4)3:2H2O
	Leonhardite      -8.59   -9.48   -0.89  MgSO4:4H2O
	Magnesite        -0.84   -8.68   -7.83  MgCO3
	Mirabilite       -6.54   -7.75   -1.21  Na2SO4:10H2O
	Nahcolite        -3.67  -14.41  -10.74  NaHCO3
	Natron           -6.13   -6.96   -0.82  Na2CO3:10H2O
	Nesquehonite     -3.51   -8.68   -5.17  MgCO3:3H2O
	Pentahydrite     -8.19   -9.48   -1.28  MgSO4:5H2O
	Pirssonite       -6.13  -15.36   -9.23  Na2Ca(CO3)2:2H2O
	Portlandite      -9.34  -14.53   -5.19  Ca(OH)2
	Trona            -9.98  -21.37  -11.38  Na3H(CO3)2:2H2O

Beginning of advection time step 5, cumulative pore volumes 5.000000.

Cell 1.

Using solution 1.	Solution after simulation 2.
Using exchange 1.	Exchange assemblage after simulation 3.
Using surface 1.	Surface assemblage after simulation 3.
Using pure phase assemblage 1.	Pure-phase assemblage after simulation 3.

-------------------------------Phase assemblage--------------------------------

                                                      Moles in assemblage
Phase                  SI log IAP  log KT      Initial       Final       Delta

Calcite              0.00   -8.41   -8.41   6.131e-002  5.935e-002 -1.962e-003
Dolomite             0.00  -17.08  -17.08   1.605e+000  1.605e+000 -3.438e-004

------------------------------Surface composition------------------------------

Hfo           
	-4.773e-003  Surface charge, eq
	-2.559e-002  sigma, C/m**2
	-7.097e-002  psi, V
	 2.762e+000  -F*psi/RT
	 1.584e+001  exp(-F*psi/RT)
	 6.000e+002  specific area, m**2/g
	 1.800e+004  m**2 for  3.000e+001 g


Hfo_w         
	 7.000e-002  moles
	                                   Mole                     Log
	Species               Moles    Fraction    Molality    Molality

	Hfo_wOH          5.320e-002       0.760  5.321e-002      -1.274
	Hfo_wO-          1.079e-002       0.154  1.079e-002      -1.967
	Hfo_wOH2+        6.012e-003       0.086  6.013e-003      -2.221
	Hfo_wOHSO4-2     1.878e-007       0.000  1.879e-007      -6.726
	Hfo_wSO4-        1.064e-008       0.000  1.064e-008      -7.973
	Hfo_wOCa+        9.884e-012       0.000  9.885e-012     -11.005
	Hfo_wOMg+        5.302e-012       0.000  5.302e-012     -11.276

-----------------------------Exchange composition------------------------------

X               1.000e+000 mol

	                               Equiv-    Equivalent      Log 
	Species             Moles      alents      Fraction     Gamma

	NaX              7.597e-001  7.597e-001  7.597e-001    -0.053
	CaX2             8.906e-002  1.781e-001  1.781e-001    -0.211
	MgX2             3.110e-002  6.220e-002  6.220e-002    -0.225

-----------------------------Solution composition------------------------------

	Elements           Molality       Moles

	C                9.790e-003  9.790e-003
	Ca               1.254e-005  1.254e-005
	Cl               1.337e-004  1.337e-004
	Mg               5.657e-006  5.656e-006
	Na               1.194e-002  1.194e-002
	S                2.351e-004  2.351e-004

----------------------------Description of solution----------------------------

                                       pH  =   9.437      Charge balance
                                       pe  =   4.000      Adjusted to redox equilibrium
       Specific Conductance (uS/cm, 25 oC) = 1115
                          Density (g/cm3)  =   0.99775
                        Activity of water  =   1.000
                           Ionic strength  =  1.367e-002
                       Mass of water (kg)  =  9.999e-001
                 Total alkalinity (eq/kg)  =  1.131e-002
                       Total CO2 (mol/kg)  =  9.790e-003
                      Temperature (deg C)  =  25.000
                  Electrical balance (eq)  =  6.529e-005
 Percent error, 100*(Cat-|An|)/(Cat+|An|)  =   0.27
                               Iterations  =  25
                         Gamma iterations  =   6
                      Osmotic coefficient  =   0.95224
                         Density of water  =   0.99706
                                  Total H  = 1.110125e+002
                                  Total O  = 5.553244e+001

----------------------------Distribution of species----------------------------

                                                           MacInnes   MacInnes
	                               MacInnes    Log       Log         Log 
   Species                 Molality    Activity  Molality  Activity     Gamma

   OH-                   3.095e-005  2.744e-005    -4.509    -4.562    -0.052
   H+                    4.151e-010  3.659e-010    -9.382    -9.437    -0.055
   H2O                   5.551e+001  9.996e-001     1.744    -0.000     0.000
C(4)            9.790e-003
   HCO3-                 8.289e-003  7.307e-003    -2.081    -2.136    -0.055
   CO3-2                 1.488e-003  9.142e-004    -2.827    -3.039    -0.212
   CO2                   5.804e-006  5.818e-006    -5.236    -5.235     0.001
   CaCO3                 5.560e-006  5.560e-006    -5.255    -5.255     0.000
   MgCO3                 1.784e-006  1.784e-006    -5.749    -5.749     0.000
Ca              1.254e-005
   Ca+2                  6.979e-006  4.293e-006    -5.156    -5.367    -0.211
   CaCO3                 5.560e-006  5.560e-006    -5.255    -5.255     0.000
Cl              1.337e-004
   Cl-                   1.337e-004  1.186e-004    -3.874    -3.926    -0.052
Mg              5.657e-006
   Mg+2                  3.862e-006  2.302e-006    -5.413    -5.638    -0.225
   MgCO3                 1.784e-006  1.784e-006    -5.749    -5.749     0.000
   MgOH+                 1.108e-008  9.764e-009    -7.955    -8.010    -0.055
Na              1.194e-002
   Na+                   1.194e-002  1.057e-002    -1.923    -1.976    -0.053
S(6)            2.351e-004
   SO4-2                 2.351e-004  1.436e-004    -3.629    -3.843    -0.214
   HSO4-                 5.637e-012  5.007e-012   -11.249   -11.300    -0.051

------------------------------Saturation indices-------------------------------

	Phase               SI log IAP  log KT

	Anhydrite        -4.85   -9.21   -4.36  CaSO4
	Aragonite        -0.19   -8.41   -8.22  CaCO3
	Bischofite      -17.95  -13.49    4.46  MgCl2:6H2O
	Bloedite        -14.93  -17.28   -2.35  Na2Mg(SO4)2:4H2O
	Brucite          -3.88  -14.76  -10.88  Mg(OH)2
	Burkeite        -21.81  -22.58   -0.77  Na6CO3(SO4)2
	Calcite           0.00   -8.41   -8.41  CaCO3
	CO2(g)           -3.77   -5.24   -1.47  CO2
	Dolomite          0.00  -17.08  -17.08  CaMg(CO3)2
	Epsomite         -7.60   -9.48   -1.88  MgSO4:7H2O
	Gaylussite       -5.98  -15.40   -9.42  CaNa2(CO3)2:5H2O
	Glauberite      -11.76  -17.00   -5.25  Na2Ca(SO4)2
	Gypsum           -4.63   -9.21   -4.58  CaSO4:2H2O
	H2O(g)           -1.51   -0.00    1.51  H2O
	Halite           -7.47   -5.90    1.57  NaCl
	Hexahydrite      -7.85   -9.48   -1.63  MgSO4:6H2O
	Kieserite        -9.36   -9.48   -0.12  MgSO4:H2O
	Labile_S        -19.13  -24.80   -5.67  Na4Ca(SO4)3:2H2O
	Leonhardite      -8.59   -9.48   -0.89  MgSO4:4H2O
	Magnesite        -0.84   -8.68   -7.83  MgCO3
	Mirabilite       -6.58   -7.80   -1.21  Na2SO4:10H2O
	Nahcolite        -3.71  -14.45  -10.74  NaHCO3
	Natron           -6.17   -6.99   -0.82  Na2CO3:10H2O
	Nesquehonite     -3.51   -8.68   -5.17  MgCO3:3H2O
	Pentahydrite     -8.20   -9.48   -1.28  MgSO4:5H2O
	Pirssonite       -6.16  -15.40   -9.23  Na2Ca(CO3)2:2H2O
	Portlandite      -9.30  -14.49   -5.19  Ca(OH)2
	Trona           -10.06  -21.44  -11.38  Na3H(CO3)2:2H2O

Beginning of advection time step 6, cumulative pore volumes 6.000000.

Cell 1.

Using solution 1.	Solution after simulation 2.
Using exchange 1.	Exchange assemblage after simulation 3.
Using surface 1.	Surface assemblage after simulation 3.
Using pure phase assemblage 1.	Pure-phase assemblage after simulation 3.

-------------------------------Phase assemblage--------------------------------

                                                      Moles in assemblage
Phase                  SI log IAP  log KT      Initial       Final       Delta

Calcite              0.00   -8.41   -8.41   5.935e-002  5.751e-002 -1.842e-003
Dolomite             0.00  -17.08  -17.08   1.605e+000  1.604e+000 -3.168e-004

------------------------------Surface composition------------------------------

Hfo           
	-4.705e-003  Surface charge, eq
	-2.522e-002  sigma, C/m**2
	-7.086e-002  psi, V
	 2.758e+000  -F*psi/RT
	 1.577e+001  exp(-F*psi/RT)
	 6.000e+002  specific area, m**2/g
	 1.800e+004  m**2 for  3.000e+001 g


Hfo_w         
	 7.000e-002  moles
	                                   Mole                     Log
	Species               Moles    Fraction    Molality    Molality

	Hfo_wOH          5.322e-002       0.760  5.322e-002      -1.274
	Hfo_wO-          1.074e-002       0.153  1.074e-002      -1.969
	Hfo_wOH2+        6.039e-003       0.086  6.039e-003      -2.219
	Hfo_wOHSO4-2     1.904e-007       0.000  1.904e-007      -6.720
	Hfo_wSO4-        1.083e-008       0.000  1.083e-008      -7.965
	Hfo_wOCa+        9.993e-012       0.000  9.994e-012     -11.000
	Hfo_wOMg+        5.360e-012       0.000  5.360e-012     -11.271

-----------------------------Exchange composition------------------------------

X               1.000e+000 mol

	                               Equiv-    Equivalent      Log 
	Species             Moles      alents      Fraction     Gamma

	NaX              7.482e-001  7.482e-001  7.482e-001    -0.052
	CaX2             9.333e-002  1.867e-001  1.867e-001    -0.209
	MgX2             3.257e-002  6.514e-002  6.514e-002    -0.222

-----------------------------Solution composition------------------------------

	Elements           Molality       Moles

	C                9.616e-003  9.616e-003
	Ca               1.266e-005  1.266e-005
	Cl               1.337e-004  1.337e-004
	Mg               5.725e-006  5.724e-006
	Na               1.160e-002  1.159e-002
	S                2.351e-004  2.351e-004

----------------------------Description of solution----------------------------

                                       pH  =   9.433      Charge balance
                                       pe  =   4.000      Adjusted to redox equilibrium
       Specific Conductance (uS/cm, 25 oC) = 1090
                          Density (g/cm3)  =   0.99774
                        Activity of water  =   1.000
                           Ionic strength  =  1.334e-002
                       Mass of water (kg)  =  9.999e-001
                 Total alkalinity (eq/kg)  =  1.110e-002
                       Total CO2 (mol/kg)  =  9.616e-003
                      Temperature (deg C)  =  25.000
                  Electrical balance (eq)  = -6.763e-005
 Percent error, 100*(Cat-|An|)/(Cat+|An|)  =  -0.29
                               Iterations  =  39
                         Gamma iterations  =   6
                      Osmotic coefficient  =   0.95270
                         Density of water  =   0.99706
                                  Total H  = 1.110124e+002
                                  Total O  = 5.553192e+001

----------------------------Distribution of species----------------------------

                                                           MacInnes   MacInnes
	                               MacInnes    Log       Log         Log 
   Species                 Molality    Activity  Molality  Activity     Gamma

   OH-                   3.065e-005  2.722e-005    -4.513    -4.565    -0.052
   H+                    4.180e-010  3.690e-010    -9.379    -9.433    -0.054
   H2O                   5.551e+001  9.996e-001     1.744    -0.000     0.000
C(4)            9.616e-003
   HCO3-                 8.156e-003  7.199e-003    -2.089    -2.143    -0.054
   CO3-2                 1.447e-003  8.934e-004    -2.839    -3.049    -0.209
   CO2                   5.766e-006  5.780e-006    -5.239    -5.238     0.001
   CaCO3                 5.560e-006  5.560e-006    -5.255    -5.255     0.000
   MgCO3                 1.784e-006  1.784e-006    -5.749    -5.749     0.000
Ca              1.266e-005
   Ca+2                  7.105e-006  4.392e-006    -5.148    -5.357    -0.209
   CaCO3                 5.560e-006  5.560e-006    -5.255    -5.255     0.000
Cl              1.337e-004
   Cl-                   1.337e-004  1.188e-004    -3.874    -3.925    -0.052
Mg              5.725e-006
   Mg+2                  3.930e-006  2.356e-006    -5.406    -5.628    -0.222
   MgCO3                 1.784e-006  1.784e-006    -5.749    -5.749     0.000
   MgOH+                 1.123e-008  9.909e-009    -7.950    -8.004    -0.054
Na              1.160e-002
   Na+                   1.160e-002  1.028e-002    -1.936    -1.988    -0.052
S(6)            2.351e-004
   SO4-2                 2.351e-004  1.443e-004    -3.629    -3.841    -0.212
   HSO4-                 5.704e-012  5.074e-012   -11.244   -11.295    -0.051

------------------------------Saturation indices-------------------------------

	Phase               SI log IAP  log KT

	Anhydrite        -4.84   -9.20   -4.36  CaSO4
	Aragonite        -0.19   -8.41   -8.22  CaCO3
	Bischofite      -17.93  -13.48    4.46  MgCl2:6H2O
	Bloedite        -14.94  -17.29   -2.35  Na2Mg(SO4)2:4H2O
	Brucite          -3.88  -14.76  -10.88  Mg(OH)2
	Burkeite        -21.89  -22.66   -0.77  Na6CO3(SO4)2
	Calcite           0.00   -8.41   -8.41  CaCO3
	CO2(g)           -3.77   -5.24   -1.47  CO2
	Dolomite          0.00  -17.08  -17.08  CaMg(CO3)2
	Epsomite         -7.59   -9.47   -1.88  MgSO4:7H2O
	Gaylussite       -6.01  -15.43   -9.42  CaNa2(CO3)2:5H2O
	Glauberite      -11.77  -17.01   -5.25  Na2Ca(SO4)2
	Gypsum           -4.62   -9.20   -4.58  CaSO4:2H2O
	H2O(g)           -1.51   -0.00    1.51  H2O
	Halite           -7.48   -5.91    1.57  NaCl
	Hexahydrite      -7.83   -9.47   -1.63  MgSO4:6H2O
	Kieserite        -9.35   -9.47   -0.12  MgSO4:H2O
	Labile_S        -19.16  -24.83   -5.67  Na4Ca(SO4)3:2H2O
	Leonhardite      -8.58   -9.47   -0.89  MgSO4:4H2O
	Magnesite        -0.84   -8.68   -7.83  MgCO3
	Mirabilite       -6.60   -7.82   -1.21  Na2SO4:10H2O
	Nahcolite        -3.73  -14.47  -10.74  NaHCO3
	Natron           -6.20   -7.03   -0.82  Na2CO3:10H2O
	Nesquehonite     -3.51   -8.68   -5.17  MgCO3:3H2O
	Pentahydrite     -8.18   -9.47   -1.28  MgSO4:5H2O
	Pirssonite       -6.20  -15.43   -9.23  Na2Ca(CO3)2:2H2O
	Portlandite      -9.30  -14.49   -5.19  Ca(OH)2
	Trona           -10.11  -21.50  -11.38  Na3H(CO3)2:2H2O

Beginning of advection time step 7, cumulative pore volumes 7.000000.

Cell 1.

Using solution 1.	Solution after simulation 2.
Using exchange 1.	Exchange assemblage after simulation 3.
Using surface 1.	Surface assemblage after simulation 3.
Using pure phase assemblage 1.	Pure-phase assemblage after simulation 3.

-------------------------------Phase assemblage--------------------------------

                                                      Moles in assemblage
Phase                  SI log IAP  log KT      Initial       Final       Delta

Calcite              0.00   -8.41   -8.41   5.751e-002  5.573e-002 -1.772e-003
Dolomite             0.00  -17.08  -17.08   1.604e+000  1.604e+000 -2.954e-004

------------------------------Surface composition------------------------------

Hfo           
	-4.588e-003  Surface charge, eq
	-2.460e-002  sigma, C/m**2
	-7.017e-002  psi, V
	 2.731e+000  -F*psi/RT
	 1.535e+001  exp(-F*psi/RT)
	 6.000e+002  specific area, m**2/g
	 1.800e+004  m**2 for  3.000e+001 g


Hfo_w         
	 7.000e-002  moles
	                                   Mole                     Log
	Species               Moles    Fraction    Molality    Molality

	Hfo_wOH          5.324e-002       0.761  5.325e-002      -1.274
	Hfo_wO-          1.067e-002       0.152  1.067e-002      -1.972
	Hfo_wOH2+        6.085e-003       0.087  6.085e-003      -2.216
	Hfo_wOHSO4-2     2.018e-007       0.000  2.019e-007      -6.695
	Hfo_wSO4-        1.157e-008       0.000  1.157e-008      -7.937
	Hfo_wOCa+        9.781e-012       0.000  9.782e-012     -11.010
	Hfo_wOMg+        5.246e-012       0.000  5.247e-012     -11.280

-----------------------------Exchange composition------------------------------

X               1.000e+000 mol

	                               Equiv-    Equivalent      Log 
	Species             Moles      alents      Fraction     Gamma

	NaX              7.370e-001  7.370e-001  7.370e-001    -0.052
	CaX2             9.750e-002  1.950e-001  1.950e-001    -0.207
	MgX2             3.402e-002  6.804e-002  6.804e-002    -0.220

-----------------------------Solution composition------------------------------

	Elements           Molality       Moles

	C                9.504e-003  9.504e-003
	Ca               1.292e-005  1.292e-005
	Cl               1.337e-004  1.337e-004
	Mg               5.863e-006  5.863e-006
	Na               1.137e-002  1.137e-002
	S                2.351e-004  2.351e-004

----------------------------Description of solution----------------------------

                                       pH  =   9.418      Charge balance
                                       pe  =   4.000      Adjusted to redox equilibrium
       Specific Conductance (uS/cm, 25 oC) = 1071
                          Density (g/cm3)  =   0.99773
                        Activity of water  =   1.000
                           Ionic strength  =  1.308e-002
                       Mass of water (kg)  =  9.999e-001
                 Total alkalinity (eq/kg)  =  1.092e-002
                       Total CO2 (mol/kg)  =  9.504e-003
                      Temperature (deg C)  =  25.000
                  Electrical balance (eq)  = -1.173e-004
 Percent error, 100*(Cat-|An|)/(Cat+|An|)  =  -0.51
                               Iterations  =  38
                         Gamma iterations  =   6
                      Osmotic coefficient  =   0.95325
                         Density of water  =   0.99706
                                  Total H  = 1.110123e+002
                                  Total O  = 5.553158e+001

----------------------------Distribution of species----------------------------

                                                           MacInnes   MacInnes
	                               MacInnes    Log       Log         Log 
   Species                 Molality    Activity  Molality  Activity     Gamma

   OH-                   2.959e-005  2.630e-005    -4.529    -4.580    -0.051
   H+                    4.320e-010  3.818e-010    -9.364    -9.418    -0.054
   H2O                   5.551e+001  9.996e-001     1.744    -0.000     0.000
C(4)            9.504e-003
   HCO3-                 8.105e-003  7.162e-003    -2.091    -2.145    -0.054
   CO3-2                 1.386e-003  8.589e-004    -2.858    -3.066    -0.208
   CO2                   5.936e-006  5.950e-006    -5.227    -5.225     0.001
   CaCO3                 5.560e-006  5.560e-006    -5.255    -5.255     0.000
   MgCO3                 1.784e-006  1.784e-006    -5.749    -5.749     0.000
Ca              1.292e-005
   Ca+2                  7.357e-006  4.569e-006    -5.133    -5.340    -0.207
   CaCO3                 5.560e-006  5.560e-006    -5.255    -5.255     0.000
Cl              1.337e-004
   Cl-                   1.337e-004  1.189e-004    -3.874    -3.925    -0.051
Mg              5.863e-006
   Mg+2                  4.068e-006  2.451e-006    -5.391    -5.611    -0.220
   MgCO3                 1.784e-006  1.784e-006    -5.749    -5.749     0.000
   MgOH+                 1.128e-008  9.960e-009    -7.948    -8.002    -0.054
Na              1.137e-002
   Na+                   1.137e-002  1.009e-002    -1.944    -1.996    -0.052
S(6)            2.351e-004
   SO4-2                 2.351e-004  1.449e-004    -3.629    -3.839    -0.210
   HSO4-                 5.920e-012  5.271e-012   -11.228   -11.278    -0.050

------------------------------Saturation indices-------------------------------

	Phase               SI log IAP  log KT

	Anhydrite        -4.82   -9.18   -4.36  CaSO4
	Aragonite        -0.19   -8.41   -8.22  CaCO3
	Bischofite      -17.92  -13.46    4.46  MgCl2:6H2O
	Bloedite        -14.93  -17.28   -2.35  Na2Mg(SO4)2:4H2O
	Brucite          -3.89  -14.77  -10.88  Mg(OH)2
	Burkeite        -21.95  -22.72   -0.77  Na6CO3(SO4)2
	Calcite           0.00   -8.41   -8.41  CaCO3
	CO2(g)           -3.76   -5.23   -1.47  CO2
	Dolomite          0.00  -17.08  -17.08  CaMg(CO3)2
	Epsomite         -7.57   -9.45   -1.88  MgSO4:7H2O
	Gaylussite       -6.04  -15.47   -9.42  CaNa2(CO3)2:5H2O
	Glauberite      -11.77  -17.01   -5.25  Na2Ca(SO4)2
	Gypsum           -4.60   -9.18   -4.58  CaSO4:2H2O
	H2O(g)           -1.51   -0.00    1.51  H2O
	Halite           -7.49   -5.92    1.57  NaCl
	Hexahydrite      -7.82   -9.45   -1.63  MgSO4:6H2O
	Kieserite        -9.33   -9.45   -0.12  MgSO4:H2O
	Labile_S        -19.17  -24.84   -5.67  Na4Ca(SO4)3:2H2O
	Leonhardite      -8.56   -9.45   -0.89  MgSO4:4H2O
	Magnesite        -0.84   -8.68   -7.83  MgCO3
	Mirabilite       -6.62   -7.83   -1.21  Na2SO4:10H2O
	Nahcolite        -3.74  -14.48  -10.74  NaHCO3
	Natron           -6.23   -7.06   -0.82  Na2CO3:10H2O
	Nesquehonite     -3.51   -8.68   -5.17  MgCO3:3H2O
	Pentahydrite     -8.17   -9.45   -1.28  MgSO4:5H2O
	Pirssonite       -6.23  -15.46   -9.23  Na2Ca(CO3)2:2H2O
	Portlandite      -9.31  -14.50   -5.19  Ca(OH)2
	Trona           -10.15  -21.54  -11.38  Na3H(CO3)2:2H2O

Beginning of advection time step 8, cumulative pore volumes 8.000000.

Cell 1.

Using solution 1.	Solution after simulation 2.
Using exchange 1.	Exchange assemblage after simulation 3.
Using surface 1.	Surface assemblage after simulation 3.
Using pure phase assemblage 1.	Pure-phase assemblage after simulation 3.

-------------------------------Phase assemblage--------------------------------

                                                      Moles in assemblage
Phase                  SI log IAP  log KT      Initial       Final       Delta

Calcite              0.00   -8.41   -8.41   5.573e-002  5.401e-002 -1.725e-003
Dolomite            -0.00  -17.08  -17.08   1.604e+000  1.604e+000 -2.769e-004

------------------------------Surface composition------------------------------

Hfo           
	-4.455e-003  Surface charge, eq
	-2.388e-002  sigma, C/m**2
	-6.923e-002  psi, V
	 2.695e+000  -F*psi/RT
	 1.480e+001  exp(-F*psi/RT)
	 6.000e+002  specific area, m**2/g
	 1.800e+004  m**2 for  3.000e+001 g


Hfo_w         
	 7.000e-002  moles
	                                   Mole                     Log
	Species               Moles    Fraction    Molality    Molality

	Hfo_wOH          5.327e-002       0.761  5.327e-002      -1.273
	Hfo_wO-          1.059e-002       0.151  1.059e-002      -1.975
	Hfo_wOH2+        6.138e-003       0.088  6.138e-003      -2.212
	Hfo_wOHSO4-2     2.179e-007       0.000  2.180e-007      -6.662
	Hfo_wSO4-        1.259e-008       0.000  1.259e-008      -7.900
	Hfo_wOCa+        9.448e-012       0.000  9.449e-012     -11.025
	Hfo_wOMg+        5.068e-012       0.000  5.068e-012     -11.295

-----------------------------Exchange composition------------------------------

X               1.000e+000 mol

	                               Equiv-    Equivalent      Log 
	Species             Moles      alents      Fraction     Gamma

	NaX              7.259e-001  7.259e-001  7.259e-001    -0.052
	CaX2             1.016e-001  2.032e-001  2.032e-001    -0.205
	MgX2             3.545e-002  7.090e-002  7.090e-002    -0.218

-----------------------------Solution composition------------------------------

	Elements           Molality       Moles

	C                9.420e-003  9.419e-003
	Ca               1.323e-005  1.323e-005
	Cl               1.337e-004  1.337e-004
	Mg               6.036e-006  6.036e-006
	Na               1.120e-002  1.120e-002
	S                2.351e-004  2.351e-004

----------------------------Description of solution----------------------------

                                       pH  =   9.399      Charge balance
                                       pe  =   4.000      Adjusted to redox equilibrium
       Specific Conductance (uS/cm, 25 oC) = 1055
                          Density (g/cm3)  =   0.99772
                        Activity of water  =   1.000
                           Ionic strength  =  1.286e-002
                       Mass of water (kg)  =  9.999e-001
                 Total alkalinity (eq/kg)  =  1.077e-002
                       Total CO2 (mol/kg)  =  9.420e-003
                      Temperature (deg C)  =  25.000
                  Electrical balance (eq)  = -1.334e-004
 Percent error, 100*(Cat-|An|)/(Cat+|An|)  =  -0.59
                               Iterations  =  21
                         Gamma iterations  =   5
                      Osmotic coefficient  =   0.95381
                         Density of water  =   0.99706
                                  Total H  = 1.110123e+002
                                  Total O  = 5.553133e+001

----------------------------Distribution of species----------------------------

                                                           MacInnes   MacInnes
	                               MacInnes    Log       Log         Log 
   Species                 Molality    Activity  Molality  Activity     Gamma

   OH-                   2.828e-005  2.516e-005    -4.549    -4.599    -0.051
   H+                    4.512e-010  3.992e-010    -9.346    -9.399    -0.053
   H2O                   5.551e+001  9.996e-001     1.744    -0.000     0.000
C(4)            9.420e-003
   HCO3-                 8.087e-003  7.153e-003    -2.092    -2.145    -0.053
   CO3-2                 1.320e-003  8.205e-004    -2.880    -3.086    -0.206
   CO2                   6.199e-006  6.213e-006    -5.208    -5.207     0.001
   CaCO3                 5.560e-006  5.560e-006    -5.255    -5.255     0.000
   MgCO3                 1.784e-006  1.784e-006    -5.749    -5.749     0.000
Ca              1.323e-005
   Ca+2                  7.669e-006  4.783e-006    -5.115    -5.320    -0.205
   CaCO3                 5.560e-006  5.560e-006    -5.255    -5.255     0.000
Cl              1.337e-004
   Cl-                   1.337e-004  1.190e-004    -3.874    -3.925    -0.051
Mg              6.036e-006
   Mg+2                  4.241e-006  2.565e-006    -5.373    -5.591    -0.218
   MgCO3                 1.784e-006  1.784e-006    -5.749    -5.749     0.000
   MgOH+                 1.128e-008  9.973e-009    -7.948    -8.001    -0.053
Na              1.120e-002
   Na+                   1.120e-002  9.949e-003    -1.951    -2.002    -0.052
S(6)            2.351e-004
[...]
	 1.800e+004  m**2 for  3.000e+001 g


Hfo_w         
	 7.000e-002  moles
	                                   Mole                     Log
	Species               Moles    Fraction    Molality    Molality

	Hfo_wOH          5.053e-002       0.722  5.053e-002      -1.296
	Hfo_wOH2+        1.215e-002       0.174  1.215e-002      -1.915
	Hfo_wO-          4.814e-003       0.069  4.814e-003      -2.317
	Hfo_wOHSO4-2     2.235e-003       0.032  2.235e-003      -2.651
	Hfo_wSO4-        2.694e-004       0.004  2.694e-004      -3.570
	Hfo_wOCa+        1.020e-013       0.000  1.020e-013     -12.991
	Hfo_wOMg+        6.045e-014       0.000  6.045e-014     -13.219

-----------------------------Exchange composition------------------------------

X               1.000e+000 mol

	                               Equiv-    Equivalent      Log 
	Species             Moles      alents      Fraction     Gamma

	CaX2             3.614e-001  7.228e-001  7.228e-001    -0.172
	MgX2             1.382e-001  2.763e-001  2.763e-001    -0.182
	NaX              9.212e-004  9.212e-004  9.212e-004    -0.046

-----------------------------Solution composition------------------------------

	Elements           Molality       Moles

	C                7.134e-003  7.134e-003
	Ca               2.039e-003  2.038e-003
	Cl               1.337e-004  1.337e-004
	Mg               1.234e-003  1.234e-003
	Na               1.227e-004  1.227e-004
	S                2.353e-004  2.353e-004

----------------------------Description of solution----------------------------

                                       pH  =   7.039      Charge balance
                                       pe  =   4.000      Adjusted to redox equilibrium
       Specific Conductance (uS/cm, 25 oC) = 610
                          Density (g/cm3)  =   0.99747
                        Activity of water  =   1.000
                           Ionic strength  =  1.016e-002
                       Mass of water (kg)  =  9.999e-001
                 Total alkalinity (eq/kg)  =  6.063e-003
                       Total CO2 (mol/kg)  =  7.134e-003
                      Temperature (deg C)  =  25.000
                  Electrical balance (eq)  =  4.169e-008
 Percent error, 100*(Cat-|An|)/(Cat+|An|)  =   0.00
                               Iterations  =   9
                         Gamma iterations  =   3
                      Osmotic coefficient  =   0.94025
                         Density of water  =   0.99706
                                  Total H  = 1.110125e+002
                                  Total O  = 5.552447e+001

----------------------------Distribution of species----------------------------

                                                           MacInnes   MacInnes
	                               MacInnes    Log       Log         Log 
   Species                 Molality    Activity  Molality  Activity     Gamma

   OH-                   1.251e-007  1.099e-007    -6.903    -6.959    -0.056
   H+                    1.018e-007  9.141e-008    -6.992    -7.039    -0.047
   H2O                   5.551e+001  9.998e-001     1.744    -0.000     0.000
C(4)            7.134e-003
   HCO3-                 6.040e-003  5.450e-003    -2.219    -2.264    -0.045
   CO2                   1.082e-003  1.084e-003    -2.966    -2.965     0.001
   CaCO3                 5.289e-006  5.289e-006    -5.277    -5.277     0.000
   CO3-2                 4.346e-006  2.730e-006    -5.362    -5.564    -0.202
   MgCO3                 1.875e-006  1.875e-006    -5.727    -5.727     0.000
Ca              2.039e-003
   Ca+2                  2.033e-003  1.368e-003    -2.692    -2.864    -0.172
   CaCO3                 5.289e-006  5.289e-006    -5.277    -5.277     0.000
Cl              1.337e-004
   Cl-                   1.337e-004  1.204e-004    -3.874    -3.920    -0.046
Mg              1.234e-003
   Mg+2                  1.232e-003  8.105e-004    -2.909    -3.091    -0.182
   MgCO3                 1.875e-006  1.875e-006    -5.727    -5.727     0.000
   MgOH+                 1.534e-008  1.376e-008    -7.814    -7.861    -0.047
Na              1.227e-004
   Na+                   1.227e-004  1.103e-004    -3.911    -3.957    -0.046
S(6)            2.353e-004
   SO4-2                 2.353e-004  1.306e-004    -3.628    -3.884    -0.256
   HSO4-                 1.259e-009  1.137e-009    -8.900    -8.944    -0.044

------------------------------Saturation indices-------------------------------

	Phase               SI log IAP  log KT

	Anhydrite        -2.39   -6.75   -4.36  CaSO4
	Aragonite        -0.21   -8.43   -8.22  CaCO3
	Bischofite      -15.39  -10.93    4.46  MgCl2:6H2O
	Bloedite        -16.43  -18.77   -2.35  Na2Mg(SO4)2:4H2O
	Brucite          -6.13  -17.01  -10.88  Mg(OH)2
	Burkeite        -36.30  -37.08   -0.77  Na6CO3(SO4)2
	Calcite          -0.02   -8.43   -8.41  CaCO3
	CO2(g)           -1.50   -2.97   -1.47  CO2
	Dolomite          0.00  -17.08  -17.08  CaMg(CO3)2
	Epsomite         -5.10   -6.98   -1.88  MgSO4:7H2O
	Gaylussite      -12.49  -21.91   -9.42  CaNa2(CO3)2:5H2O
	Glauberite      -13.30  -18.55   -5.25  Na2Ca(SO4)2
	Gypsum           -2.17   -6.75   -4.58  CaSO4:2H2O
	H2O(g)           -1.51   -0.00    1.51  H2O
	Halite           -9.45   -7.88    1.57  NaCl
	Hexahydrite      -5.34   -6.98   -1.63  MgSO4:6H2O
	Kieserite        -6.85   -6.98   -0.12  MgSO4:H2O
	Labile_S        -24.67  -30.35   -5.67  Na4Ca(SO4)3:2H2O
	Leonhardite      -6.09   -6.98   -0.89  MgSO4:4H2O
	Magnesite        -0.82   -8.66   -7.83  MgCO3
	Mirabilite      -10.59  -11.80   -1.21  Na2SO4:10H2O
	Nahcolite        -5.82  -16.56  -10.74  NaHCO3
	Natron          -12.65  -13.48   -0.82  Na2CO3:10H2O
	Nesquehonite     -3.49   -8.66   -5.17  MgCO3:3H2O
	Pentahydrite     -5.69   -6.98   -1.28  MgSO4:5H2O
	Pirssonite      -12.67  -21.91   -9.23  Na2Ca(CO3)2:2H2O
	Portlandite     -11.59  -16.78   -5.19  Ca(OH)2
	Trona           -18.66  -30.04  -11.38  Na3H(CO3)2:2H2O

Beginning of advection time step 199, cumulative pore volumes 199.000000.

Cell 1.

Using solution 1.	Solution after simulation 2.
Using exchange 1.	Exchange assemblage after simulation 3.
Using surface 1.	Surface assemblage after simulation 3.
Using pure phase assemblage 1.	Pure-phase assemblage after simulation 3.

-------------------------------Phase assemblage--------------------------------

                                                      Moles in assemblage
Phase                  SI log IAP  log KT      Initial       Final       Delta

Calcite             -0.02   -8.43   -8.41   0.000e+000           0  0.000e+000
Dolomite             0.00  -17.08  -17.08   1.584e+000  1.584e+000  3.429e-006

------------------------------Surface composition------------------------------

Hfo           
	 2.599e-003  Surface charge, eq
	 1.393e-002  sigma, C/m**2
	 5.146e-002  psi, V
	-2.003e+000  -F*psi/RT
	 1.349e-001  exp(-F*psi/RT)
	 6.000e+002  specific area, m**2/g
	 1.800e+004  m**2 for  3.000e+001 g


Hfo_w         
	 7.000e-002  moles
	                                   Mole                     Log
	Species               Moles    Fraction    Molality    Molality

	Hfo_wOH          5.053e-002       0.722  5.053e-002      -1.296
	Hfo_wOH2+        1.215e-002       0.174  1.215e-002      -1.915
	Hfo_wO-          4.814e-003       0.069  4.814e-003      -2.317
	Hfo_wOHSO4-2     2.234e-003       0.032  2.235e-003      -2.651
	Hfo_wSO4-        2.693e-004       0.004  2.694e-004      -3.570
	Hfo_wOCa+        1.020e-013       0.000  1.020e-013     -12.991
	Hfo_wOMg+        6.043e-014       0.000  6.043e-014     -13.219

-----------------------------Exchange composition------------------------------

X               1.000e+000 mol

	                               Equiv-    Equivalent      Log 
	Species             Moles      alents      Fraction     Gamma

	CaX2             3.615e-001  7.229e-001  7.229e-001    -0.172
	MgX2             1.381e-001  2.762e-001  2.762e-001    -0.182
	NaX              9.212e-004  9.212e-004  9.212e-004    -0.046

-----------------------------Solution composition------------------------------

	Elements           Molality       Moles

	C                7.134e-003  7.134e-003
	Ca               2.039e-003  2.039e-003
	Cl               1.337e-004  1.337e-004
	Mg               1.233e-003  1.233e-003
	Na               1.227e-004  1.227e-004
	S                2.353e-004  2.353e-004

----------------------------Description of solution----------------------------

                                       pH  =   7.039      Charge balance
                                       pe  =   4.000      Adjusted to redox equilibrium
       Specific Conductance (uS/cm, 25 oC) = 610
                          Density (g/cm3)  =   0.99747
                        Activity of water  =   1.000
                           Ionic strength  =  1.016e-002
                       Mass of water (kg)  =  9.999e-001
                 Total alkalinity (eq/kg)  =  6.063e-003
                       Total CO2 (mol/kg)  =  7.134e-003
                      Temperature (deg C)  =  25.000
                  Electrical balance (eq)  =  4.147e-008
 Percent error, 100*(Cat-|An|)/(Cat+|An|)  =   0.00
                               Iterations  =   9
                         Gamma iterations  =   3
                      Osmotic coefficient  =   0.94025
                         Density of water  =   0.99706
                                  Total H  = 1.110125e+002
                                  Total O  = 5.552447e+001

----------------------------Distribution of species----------------------------

                                                           MacInnes   MacInnes
	                               MacInnes    Log       Log         Log 
   Species                 Molality    Activity  Molality  Activity     Gamma

   OH-                   1.251e-007  1.099e-007    -6.903    -6.959    -0.056
   H+                    1.018e-007  9.140e-008    -6.992    -7.039    -0.047
   H2O                   5.551e+001  9.998e-001     1.744    -0.000     0.000
C(4)            7.134e-003
   HCO3-                 6.040e-003  5.450e-003    -2.219    -2.264    -0.045
   CO2                   1.082e-003  1.084e-003    -2.966    -2.965     0.001
   CaCO3                 5.291e-006  5.291e-006    -5.276    -5.276     0.000
   CO3-2                 4.347e-006  2.730e-006    -5.362    -5.564    -0.202
   MgCO3                 1.874e-006  1.874e-006    -5.727    -5.727     0.000
Ca              2.039e-003
   Ca+2                  2.034e-003  1.368e-003    -2.692    -2.864    -0.172
   CaCO3                 5.291e-006  5.291e-006    -5.276    -5.276     0.000
Cl              1.337e-004
   Cl-                   1.337e-004  1.204e-004    -3.874    -3.920    -0.046
Mg              1.233e-003
   Mg+2                  1.231e-003  8.101e-004    -2.910    -3.091    -0.182
   MgCO3                 1.874e-006  1.874e-006    -5.727    -5.727     0.000
   MgOH+                 1.533e-008  1.376e-008    -7.814    -7.861    -0.047
Na              1.227e-004
   Na+                   1.227e-004  1.103e-004    -3.911    -3.957    -0.046
S(6)            2.353e-004
   SO4-2                 2.353e-004  1.306e-004    -3.628    -3.884    -0.256
   HSO4-                 1.259e-009  1.137e-009    -8.900    -8.944    -0.044

------------------------------Saturation indices-------------------------------

	Phase               SI log IAP  log KT

	Anhydrite        -2.39   -6.75   -4.36  CaSO4
	Aragonite        -0.21   -8.43   -8.22  CaCO3
	Bischofite      -15.39  -10.93    4.46  MgCl2:6H2O
	Bloedite        -16.43  -18.78   -2.35  Na2Mg(SO4)2:4H2O
	Brucite          -6.13  -17.01  -10.88  Mg(OH)2
	Burkeite        -36.30  -37.08   -0.77  Na6CO3(SO4)2
	Calcite          -0.02   -8.43   -8.41  CaCO3
	CO2(g)           -1.50   -2.97   -1.47  CO2
	Dolomite          0.00  -17.08  -17.08  CaMg(CO3)2
	Epsomite         -5.10   -6.98   -1.88  MgSO4:7H2O
	Gaylussite      -12.49  -21.91   -9.42  CaNa2(CO3)2:5H2O
	Glauberite      -13.30  -18.55   -5.25  Na2Ca(SO4)2
	Gypsum           -2.17   -6.75   -4.58  CaSO4:2H2O
	H2O(g)           -1.51   -0.00    1.51  H2O
	Halite           -9.45   -7.88    1.57  NaCl
	Hexahydrite      -5.34   -6.98   -1.63  MgSO4:6H2O
	Kieserite        -6.85   -6.98   -0.12  MgSO4:H2O
	Labile_S        -24.67  -30.35   -5.67  Na4Ca(SO4)3:2H2O
	Leonhardite      -6.09   -6.98   -0.89  MgSO4:4H2O
	Magnesite        -0.82   -8.66   -7.83  MgCO3
	Mirabilite      -10.59  -11.80   -1.21  Na2SO4:10H2O
	Nahcolite        -5.82  -16.56  -10.74  NaHCO3
	Natron          -12.65  -13.48   -0.82  Na2CO3:10H2O
	Nesquehonite     -3.49   -8.66   -5.17  MgCO3:3H2O
	Pentahydrite     -5.69   -6.98   -1.28  MgSO4:5H2O
	Pirssonite      -12.67  -21.91   -9.23  Na2Ca(CO3)2:2H2O
	Portlandite     -11.59  -16.78   -5.19  Ca(OH)2
	Trona           -18.66  -30.04  -11.38  Na3H(CO3)2:2H2O

Beginning of advection time step 200, cumulative pore volumes 200.000000.

Cell 1.

Using solution 1.	Solution after simulation 2.
Using exchange 1.	Exchange assemblage after simulation 3.
Using surface 1.	Surface assemblage after simulation 3.
Using pure phase assemblage 1.	Pure-phase assemblage after simulation 3.

-------------------------------Phase assemblage--------------------------------

                                                      Moles in assemblage
Phase                  SI log IAP  log KT      Initial       Final       Delta

Calcite             -0.02   -8.43   -8.41   0.000e+000           0  0.000e+000
Dolomite             0.00  -17.08  -17.08   1.584e+000  1.584e+000  3.404e-006

------------------------------Surface composition------------------------------

Hfo           
	 2.599e-003  Surface charge, eq
	 1.393e-002  sigma, C/m**2
	 5.146e-002  psi, V
	-2.003e+000  -F*psi/RT
	 1.349e-001  exp(-F*psi/RT)
	 6.000e+002  specific area, m**2/g
	 1.800e+004  m**2 for  3.000e+001 g


Hfo_w         
	 7.000e-002  moles
	                                   Mole                     Log
	Species               Moles    Fraction    Molality    Molality

	Hfo_wOH          5.053e-002       0.722  5.053e-002      -1.296
	Hfo_wOH2+        1.215e-002       0.174  1.215e-002      -1.915
	Hfo_wO-          4.814e-003       0.069  4.814e-003      -2.317
	Hfo_wOHSO4-2     2.234e-003       0.032  2.234e-003      -2.651
	Hfo_wSO4-        2.693e-004       0.004  2.693e-004      -3.570
	Hfo_wOCa+        1.021e-013       0.000  1.021e-013     -12.991
	Hfo_wOMg+        6.041e-014       0.000  6.041e-014     -13.219

-----------------------------Exchange composition------------------------------

X               1.000e+000 mol

	                               Equiv-    Equivalent      Log 
	Species             Moles      alents      Fraction     Gamma

	CaX2             3.615e-001  7.231e-001  7.231e-001    -0.172
	MgX2             1.380e-001  2.760e-001  2.760e-001    -0.182
	NaX              9.211e-004  9.211e-004  9.211e-004    -0.046

-----------------------------Solution composition------------------------------

	Elements           Molality       Moles

	C                7.134e-003  7.134e-003
	Ca               2.040e-003  2.040e-003
	Cl               1.337e-004  1.337e-004
	Mg               1.233e-003  1.233e-003
	Na               1.227e-004  1.227e-004
	S                2.353e-004  2.353e-004

----------------------------Description of solution----------------------------

                                       pH  =   7.039      Charge balance
                                       pe  =   4.000      Adjusted to redox equilibrium
       Specific Conductance (uS/cm, 25 oC) = 611
                          Density (g/cm3)  =   0.99747
                        Activity of water  =   1.000
                           Ionic strength  =  1.016e-002
                       Mass of water (kg)  =  9.999e-001
                 Total alkalinity (eq/kg)  =  6.063e-003
                       Total CO2 (mol/kg)  =  7.134e-003
                      Temperature (deg C)  =  25.000
                  Electrical balance (eq)  =  4.125e-008
 Percent error, 100*(Cat-|An|)/(Cat+|An|)  =   0.00
                               Iterations  =   9
                         Gamma iterations  =   3
                      Osmotic coefficient  =   0.94025
                         Density of water  =   0.99706
                                  Total H  = 1.110125e+002
                                  Total O  = 5.552447e+001

----------------------------Distribution of species----------------------------

                                                           MacInnes   MacInnes
	                               MacInnes    Log       Log         Log 
   Species                 Molality    Activity  Molality  Activity     Gamma

   OH-                   1.251e-007  1.099e-007    -6.903    -6.959    -0.056
   H+                    1.018e-007  9.140e-008    -6.992    -7.039    -0.047
   H2O                   5.551e+001  9.998e-001     1.744    -0.000     0.000
C(4)            7.134e-003
   HCO3-                 6.040e-003  5.450e-003    -2.219    -2.264    -0.045
   CO2                   1.082e-003  1.084e-003    -2.966    -2.965     0.001
   CaCO3                 5.293e-006  5.293e-006    -5.276    -5.276     0.000
   CO3-2                 4.347e-006  2.730e-006    -5.362    -5.564    -0.202
   MgCO3                 1.874e-006  1.874e-006    -5.727    -5.727     0.000
Ca              2.040e-003
   Ca+2                  2.034e-003  1.368e-003    -2.692    -2.864    -0.172
   CaCO3                 5.293e-006  5.293e-006    -5.276    -5.276     0.000
Cl              1.337e-004
   Cl-                   1.337e-004  1.204e-004    -3.874    -3.920    -0.046
Mg              1.233e-003
   Mg+2                  1.231e-003  8.098e-004    -2.910    -3.092    -0.182
   MgCO3                 1.874e-006  1.874e-006    -5.727    -5.727     0.000
   MgOH+                 1.533e-008  1.375e-008    -7.815    -7.862    -0.047
Na              1.227e-004
   Na+                   1.227e-004  1.103e-004    -3.911    -3.957    -0.046
S(6)            2.353e-004
   SO4-2                 2.353e-004  1.306e-004    -3.628    -3.884    -0.256
   HSO4-                 1.259e-009  1.137e-009    -8.900    -8.944    -0.044

------------------------------Saturation indices-------------------------------

	Phase               SI log IAP  log KT

	Anhydrite        -2.39   -6.75   -4.36  CaSO4
	Aragonite        -0.21   -8.43   -8.22  CaCO3
	Bischofite      -15.39  -10.93    4.46  MgCl2:6H2O
	Bloedite        -16.43  -18.78   -2.35  Na2Mg(SO4)2:4H2O
	Brucite          -6.13  -17.01  -10.88  Mg(OH)2
	Burkeite        -36.30  -37.08   -0.77  Na6CO3(SO4)2
	Calcite          -0.02   -8.43   -8.41  CaCO3
	CO2(g)           -1.50   -2.97   -1.47  CO2
	Dolomite          0.00  -17.08  -17.08  CaMg(CO3)2
	Epsomite         -5.10   -6.98   -1.88  MgSO4:7H2O
	Gaylussite      -12.49  -21.91   -9.42  CaNa2(CO3)2:5H2O
	Glauberite      -13.30  -18.55   -5.25  Na2Ca(SO4)2
	Gypsum           -2.17   -6.75   -4.58  CaSO4:2H2O
	H2O(g)           -1.51   -0.00    1.51  H2O
	Halite           -9.45   -7.88    1.57  NaCl
	Hexahydrite      -5.34   -6.98   -1.63  MgSO4:6H2O
	Kieserite        -6.85   -6.98   -0.12  MgSO4:H2O
	Labile_S        -24.67  -30.35   -5.67  Na4Ca(SO4)3:2H2O
	Leonhardite      -6.09   -6.98   -0.89  MgSO4:4H2O
	Magnesite        -0.82   -8.66   -7.83  MgCO3
	Mirabilite      -10.59  -11.80   -1.21  Na2SO4:10H2O
	Nahcolite        -5.82  -16.56  -10.74  NaHCO3
	Natron          -12.65  -13.48   -0.82  Na2CO3:10H2O
	Nesquehonite     -3.49   -8.66   -5.17  MgCO3:3H2O
	Pentahydrite     -5.69   -6.98   -1.28  MgSO4:5H2O
	Pirssonite      -12.67  -21.91   -9.23  Na2Ca(CO3)2:2H2O
	Portlandite     -11.59  -16.78   -5.19  Ca(OH)2
	Trona           -18.66  -30.04  -11.38  Na3H(CO3)2:2H2O

------------------
End of simulation.
------------------

------------------------------------
Reading input data for simulation 4.
------------------------------------

-----------
End of run.
-----------

