   Input file: ex12
  Output file: ex12.out
Database file: ../database/phreeqc.dat

------------------
Reading data base.
------------------

	SOLUTION_MASTER_SPECIES
	SOLUTION_SPECIES
	PHASES
	EXCHANGE_MASTER_SPECIES
	EXCHANGE_SPECIES
	SURFACE_MASTER_SPECIES
	SURFACE_SPECIES
	RATES
	END
------------------------------------
Reading input data for simulation 1.
------------------------------------

	DATABASE ../database/phreeqc.dat
	knobs
		logfile
	TITLE 
	Example 12.--Inverse modeling of Black Sea water evaporation
	SOLUTION 1  Black Sea water
	        units   mg/L
	        density 1.014
	        pH      8.0     # estimated
	        Ca      233
	        Mg      679
	        Na      5820
	        K       193
	        S(6)    1460
	        Cl      10340
	        Br      35
	SOLUTION 2  Composition during halite precipitation
	        units   mg/L
	        density 1.271
	        pH      8.0     # estimated
	        Ca      0.0 
	        Mg      50500
	        Na      55200
	        K       15800
	        S(6)    76200
	        Cl      187900
	        Br      2670
	INVERSE_MODELING
	        solutions 1 2
	        uncertainties .025
	        phases
	                H2O     pre
	                gypsum  pre
	                halite  pre
	        balances 
	                Alkalinity 1.0
	                Br
	                K
	                Mg
	PHASES
	H2O
	        H2O = H2O
	        log_k   0.0
	Halite
	        NaCl = Na+ + Cl- 
	        log_k   1.582
	END
-----
TITLE
-----

Example 12.--Inverse modeling of Black Sea water evaporation

-------------------------------------------
Beginning of initial solution calculations.
-------------------------------------------

Initial solution 1.	Black Sea water

-----------------------------Solution composition------------------------------

	Elements           Molality       Moles

	Br               4.401e-004  4.401e-004
	Ca               5.841e-003  5.841e-003
	Cl               2.930e-001  2.930e-001
	K                4.959e-003  4.959e-003
	Mg               2.806e-002  2.806e-002
	Na               2.544e-001  2.544e-001
	S(6)             1.527e-002  1.527e-002

----------------------------Description of solution----------------------------

                                       pH  =   8.000    
                                       pe  =   4.000    
       Specific Conductance (uS/cm, 25 oC) = 30988
                          Density (g/cm3)  =   1.01090
                        Activity of water  =   0.990
                           Ionic strength  =  3.538e-001
                       Mass of water (kg)  =  1.000e+000
                 Total alkalinity (eq/kg)  =  5.347e-006
                    Total carbon (mol/kg)  =  0.000e+000
                       Total CO2 (mol/kg)  =  0.000e+000
                      Temperature (deg C)  =  25.000
                  Electrical balance (eq)  =  3.097e-003
 Percent error, 100*(Cat-|An|)/(Cat+|An|)  =   0.49
                               Iterations  =   5
                                  Total H  = 1.110124e+002
                                  Total O  = 5.556731e+001

----------------------------Distribution of species----------------------------

                                                   Log       Log         Log 
   Species                 Molality    Activity  Molality  Activity     Gamma

   OH-                   1.500e-006  9.909e-007    -5.824    -6.004    -0.180
   H+                    1.288e-008  1.000e-008    -7.890    -8.000    -0.110
   H2O                   5.551e+001  9.899e-001     1.744    -0.004     0.000
Br              4.401e-004
   Br-                   4.401e-004  2.835e-004    -3.356    -3.547    -0.191
Ca              5.841e-003
   Ca+2                  5.283e-003  1.473e-003    -2.277    -2.832    -0.555
   CaSO4                 5.577e-004  6.051e-004    -3.254    -3.218     0.035
   CaOH+                 3.309e-008  2.420e-008    -7.480    -7.616    -0.136
   CaHSO4+               4.847e-011  3.545e-011   -10.315   -10.450    -0.136
Cl              2.930e-001
   Cl-                   2.930e-001  1.960e-001    -0.533    -0.708    -0.175
H(0)            1.305e-027
   H2                    6.526e-028  7.079e-028   -27.185   -27.150     0.035
K               4.959e-003
   K+                    4.895e-003  3.274e-003    -2.310    -2.485    -0.175
   KSO4-                 6.477e-005  4.736e-005    -4.189    -4.325    -0.136
   KOH                   1.036e-009  1.124e-009    -8.985    -8.949     0.035
Mg              2.806e-002
   Mg+2                  2.469e-002  7.569e-003    -1.607    -2.121    -0.513
   MgSO4                 3.367e-003  3.653e-003    -2.473    -2.437     0.035
   MgOH+                 3.720e-006  2.720e-006    -5.429    -5.565    -0.136
Na              2.544e-001
   Na+                   2.518e-001  1.809e-001    -0.599    -0.742    -0.144
   NaSO4-                2.553e-003  1.867e-003    -2.593    -2.729    -0.136
   NaOH                  1.091e-007  1.183e-007    -6.962    -6.927     0.035
O(0)            1.502e-038
   O2                    7.512e-039  8.150e-039   -38.124   -38.089     0.035
S(6)            1.527e-002
   SO4-2                 8.728e-003  2.059e-003    -2.059    -2.686    -0.627
   MgSO4                 3.367e-003  3.653e-003    -2.473    -2.437     0.035
   NaSO4-                2.553e-003  1.867e-003    -2.593    -2.729    -0.136
   CaSO4                 5.577e-004  6.051e-004    -3.254    -3.218     0.035
   KSO4-                 6.477e-005  4.736e-005    -4.189    -4.325    -0.136
   HSO4-                 2.737e-009  2.002e-009    -8.563    -8.699    -0.136
   CaHSO4+               4.847e-011  3.545e-011   -10.315   -10.450    -0.136

------------------------------Saturation indices-------------------------------

	Phase               SI log IAP  log KT

	Anhydrite        -1.16   -5.52   -4.36  CaSO4
	Gypsum           -0.95   -5.53   -4.58  CaSO4:2H2O
	H2(g)           -24.00  -27.15   -3.15  H2
	H2O              -0.00   -0.00    0.00  H2O
	H2O(g)           -1.51   -0.00    1.51  H2O
	Halite           -3.03   -1.45    1.58  NaCl
	O2(g)           -35.20  -38.09   -2.89  O2

Initial solution 2.	Composition during halite precipitation

-----------------------------Solution composition------------------------------

	Elements           Molality       Moles

	Br               3.785e-002  3.785e-002
	Cl               6.004e+000  6.004e+000
	K                4.578e-001  4.578e-001
	Mg               2.353e+000  2.353e+000
	Na               2.720e+000  2.720e+000
	S(6)             8.986e-001  8.986e-001

----------------------------Description of solution----------------------------

                                       pH  =   8.000    
                                       pe  =   4.000    
       Specific Conductance (uS/cm, 25 oC) = 417782
                          Density (g/cm3)  =   1.29843
                        Activity of water  =   0.802
                           Ionic strength  =  7.826e+000
                       Mass of water (kg)  =  1.000e+000
                 Total alkalinity (eq/kg)  =  2.867e-004
                    Total carbon (mol/kg)  =  0.000e+000
                       Total CO2 (mol/kg)  =  0.000e+000
                      Temperature (deg C)  =  25.000
                  Electrical balance (eq)  =  4.461e-002
 Percent error, 100*(Cat-|An|)/(Cat+|An|)  =   0.36
                               Iterations  =   9
                                  Total H  = 1.110127e+002
                                  Total O  = 5.910090e+001

----------------------------Distribution of species----------------------------

                                                   Log       Log         Log 
   Species                 Molality    Activity  Molality  Activity     Gamma

   OH-                   1.749e-006  8.029e-007    -5.757    -6.095    -0.338
   H+                    1.425e-008  1.000e-008    -7.846    -8.000    -0.154
   H2O                   5.551e+001  8.021e-001     1.744    -0.096     0.000
Br              3.785e-002
   Br-                   3.785e-002  1.580e-002    -1.422    -1.801    -0.379
Cl              6.004e+000
   Cl-                   6.004e+000  3.612e+000     0.778     0.558    -0.221
H(0)            2.336e-028
   H2                    1.168e-028  7.079e-028   -27.933   -27.150     0.783
K               4.578e-001
   K+                    4.568e-001  2.748e-001    -0.340    -0.561    -0.221
   KSO4-                 9.516e-004  6.296e-003    -3.022    -2.201     0.821
   KOH                   1.261e-008  7.643e-008    -7.899    -7.117     0.783
Mg              2.353e+000
   Mg+2                  1.538e+000  6.463e+000     0.187     0.810     0.623
   MgSO4                 8.148e-001  4.939e+000    -0.089     0.694     0.783
   MgOH+                 2.845e-004  1.882e-003    -3.546    -2.725     0.821
Na              2.720e+000
   Na+                   2.707e+000  5.184e+000     0.433     0.715     0.282
   NaSO4-                1.280e-002  8.470e-002    -1.893    -1.072     0.821
   NaOH                  4.531e-007  2.747e-006    -6.344    -5.561     0.783
O(0)            1.765e-039
   O2                    8.827e-040  5.351e-039   -39.054   -38.272     0.783
S(6)            8.986e-001
   MgSO4                 8.148e-001  4.939e+000    -0.089     0.694     0.783
   SO4-2                 7.005e-002  3.260e-003    -1.155    -2.487    -1.332
   NaSO4-                1.280e-002  8.470e-002    -1.893    -1.072     0.821
   KSO4-                 9.516e-004  6.296e-003    -3.022    -2.201     0.821
   HSO4-                 4.791e-010  3.170e-009    -9.320    -8.499     0.821

------------------------------Saturation indices-------------------------------

	Phase               SI log IAP  log KT

	H2(g)           -24.00  -27.15   -3.15  H2
	H2O              -0.10   -0.10    0.00  H2O
	H2O(g)           -1.61   -0.10    1.51  H2O
	Halite           -0.31    1.27    1.58  NaCl
	O2(g)           -35.38  -38.27   -2.89  O2

---------------------------------------------
Beginning of inverse modeling 1 calculations.
---------------------------------------------

Using Cl1 standard precision optimization routine.

Solution 1: Black Sea water

                         Input          Delta    Input+Delta
     Alkalinity     5.347e-006  +  0.000e+000  =  5.347e-006
             Br     4.401e-004  +  0.000e+000  =  4.401e-004
             Ca     5.841e-003  + -1.272e-004  =  5.714e-003
             Cl     2.930e-001  +  7.791e-004  =  2.938e-001
           H(0)     0.000e+000  +  0.000e+000  =  0.000e+000
              K     4.959e-003  +  1.034e-004  =  5.063e-003
             Mg     2.806e-002  + -7.016e-004  =  2.736e-002
             Na     2.544e-001  +  0.000e+000  =  2.544e-001
           O(0)     0.000e+000  +  0.000e+000  =  0.000e+000
          S(-2)     0.000e+000  +  0.000e+000  =  0.000e+000
           S(6)     1.527e-002  +  3.818e-004  =  1.565e-002

Solution 2: Composition during halite precipitation

                         Input          Delta    Input+Delta
     Alkalinity     2.867e-004  +  1.847e-004  =  4.714e-004
             Br     3.785e-002  +  9.440e-004  =  3.880e-002
             Ca     0.000e+000  +  0.000e+000  =  0.000e+000
             Cl     6.004e+000  +  1.501e-001  =  6.154e+000
           H(0)     0.000e+000  +  0.000e+000  =  0.000e+000
              K     4.578e-001  + -1.144e-002  =  4.463e-001
             Mg     2.353e+000  +  5.883e-002  =  2.412e+000
             Na     2.720e+000  + -4.452e-002  =  2.676e+000
           O(0)     0.000e+000  +  0.000e+000  =  0.000e+000
          S(-2)     0.000e+000  +  0.000e+000  =  0.000e+000
           S(6)     8.986e-001  + -2.247e-002  =  8.761e-001

Solution fractions:                   Minimum        Maximum
   Solution   1     8.815e+001     0.000e+000     0.000e+000
   Solution   2     1.000e+000     0.000e+000     0.000e+000

Phase mole transfers:                 Minimum        Maximum
            H2O    -4.837e+003     0.000e+000     0.000e+000   H2O
         Gypsum    -5.037e-001     0.000e+000     0.000e+000   CaSO4:2H2O
         Halite    -1.975e+001     0.000e+000     0.000e+000   NaCl

Redox mole transfers:    

Sum of residuals (epsilons in documentation):        3.423e+002
Sum of delta/uncertainty limit:                      1.011e+001
Maximum fractional error in element concentration:   6.442e-001

Model contains minimum number of phases.
===============================================================================


Summary of inverse modeling:

	Number of models found: 1
	Number of minimal models found: 1
	Number of infeasible sets of phases saved: 4
	Number of calls to cl1: 8
------------------
End of simulation.
------------------

------------------------------------
Reading input data for simulation 2.
------------------------------------

-----------
End of run.
-----------

