   Input file: ex5
  Output file: ex5.out
Database file: ../database/phreeqc.dat

------------------
Reading data base.
------------------

	SOLUTION_MASTER_SPECIES
	SOLUTION_SPECIES
	PHASES
	EXCHANGE_MASTER_SPECIES
	EXCHANGE_SPECIES
	SURFACE_MASTER_SPECIES
	SURFACE_SPECIES
	RATES
	END
------------------------------------
Reading input data for simulation 1.
------------------------------------

	DATABASE ../database/phreeqc.dat
	knobs
		logfile
	TITLE Example 5.--Add oxygen, equilibrate with pyrite, calcite, and goethite.
	SOLUTION 1  PURE WATER
	        pH      7.0
	        temp    25.0
	EQUILIBRIUM_PHASES 1
	        Pyrite          0.0
	        Goethite        0.0
	        Calcite         0.0
	        Gypsum          0.0     0.0
	REACTION 1
	        O2      1.0
	        0.0     0.001   0.005   0.01    0.05
	SELECTED_OUTPUT
	        file   ex5.pun
	        si     CO2(g)  Gypsum
	        equilibrium_phases  pyrite goethite calcite gypsum
	END
-----
TITLE
-----

 Example 5.--Add oxygen, equilibrate with pyrite, calcite, and goethite.

-------------------------------------------
Beginning of initial solution calculations.
-------------------------------------------

Initial solution 1.	PURE WATER

-----------------------------Solution composition------------------------------

	Elements           Molality       Moles

	Pure water     

----------------------------Description of solution----------------------------

                                       pH  =   7.000    
                                       pe  =   4.000    
       Specific Conductance (uS/cm, 25 oC) = 0
                          Density (g/cm3)  =   0.99705
                        Activity of water  =   1.000
                           Ionic strength  =  1.001e-007
                       Mass of water (kg)  =  1.000e+000
                 Total alkalinity (eq/kg)  =  1.082e-010
                    Total carbon (mol/kg)  =  0.000e+000
                       Total CO2 (mol/kg)  =  0.000e+000
                      Temperature (deg C)  =  25.000
                  Electrical balance (eq)  = -1.082e-010
 Percent error, 100*(Cat-|An|)/(Cat+|An|)  =  -0.05
                               Iterations  =   0
                                  Total H  = 1.110124e+002
                                  Total O  = 5.550622e+001

----------------------------Distribution of species----------------------------

                                                   Log       Log         Log 
   Species                 Molality    Activity  Molality  Activity     Gamma

   OH-                   1.002e-007  1.001e-007    -6.999    -6.999    -0.000
   H+                    1.001e-007  1.000e-007    -7.000    -7.000    -0.000
   H2O                   5.551e+001  1.000e+000     1.744     0.000     0.000
H(0)            1.416e-025
   H2                    7.079e-026  7.079e-026   -25.150   -25.150     0.000
O(0)            0.000e+000
   O2                    0.000e+000  0.000e+000   -42.080   -42.080     0.000

------------------------------Saturation indices-------------------------------

	Phase               SI log IAP  log KT

	H2(g)           -22.00  -25.15   -3.15  H2
	H2O(g)           -1.51    0.00    1.51  H2O
	O2(g)           -39.19  -42.08   -2.89  O2

-----------------------------------------
Beginning of batch-reaction calculations.
-----------------------------------------

Reaction step 1.

Using solution 1.	PURE WATER
Using pure phase assemblage 1.	
Using reaction 1.	

Reaction 1.	Irreversible reaction defined in simulation 1.

	 0.000e+000 moles of the following reaction have been added:

	                 Relative
	Reactant            moles

	O2                   1.00000

	                 Relative
	Element             moles
	O                    2.00000

-------------------------------Phase assemblage--------------------------------

                                                      Moles in assemblage
Phase                  SI log IAP  log KT      Initial       Final       Delta

Calcite              0.00   -8.48   -8.48   1.000e+001  1.000e+001 -1.228e-004
Goethite            -0.00   -1.00   -1.00   1.000e+001  1.000e+001  1.476e-007
Gypsum              -6.29  -10.87   -4.58   0.000e+000           0  0.000e+000
Pyrite               0.00  -18.48  -18.48   1.000e+001  1.000e+001 -1.477e-007

-----------------------------Solution composition------------------------------

	Elements           Molality       Moles

	C                1.228e-004  1.228e-004
	Ca               1.228e-004  1.228e-004
	Fe               7.868e-011  7.868e-011
	S                2.955e-007  2.955e-007

----------------------------Description of solution----------------------------

                                       pH  =   9.909      Charge balance
                                       pe  =  -6.952      Adjusted to redox equilibrium
       Specific Conductance (uS/cm, 25 oC) = 37
                          Density (g/cm3)  =   0.99706
                        Activity of water  =   1.000
                           Ionic strength  =  3.853e-004
                       Mass of water (kg)  =  1.000e+000
                 Total alkalinity (eq/kg)  =  2.454e-004
                       Total CO2 (mol/kg)  =  1.227e-004
                      Temperature (deg C)  =  25.000
                  Electrical balance (eq)  = -1.082e-010
 Percent error, 100*(Cat-|An|)/(Cat+|An|)  =  -0.00
                               Iterations  =  17
                                  Total H  = 1.110124e+002
                                  Total O  = 5.550659e+001

----------------------------Distribution of species----------------------------

                                                   Log       Log         Log 
   Species                 Molality    Activity  Molality  Activity     Gamma

   OH-                   8.302e-005  8.117e-005    -4.081    -4.091    -0.010
   H+                    1.260e-010  1.233e-010    -9.900    -9.909    -0.009
   H2O                   5.551e+001  1.000e+000     1.744    -0.000     0.000
C(-4)           1.214e-007
   CH4                   1.214e-007  1.214e-007    -6.916    -6.916     0.000
C(4)            1.227e-004
   HCO3-                 8.320e-005  8.137e-005    -4.080    -4.090    -0.010
   CO3-2                 3.382e-005  3.094e-005    -4.471    -4.509    -0.039
   CaCO3                 5.564e-006  5.565e-006    -5.255    -5.255     0.000
   CaHCO3+               1.136e-007  1.111e-007    -6.944    -6.954    -0.010
   CO2                   2.256e-008  2.256e-008    -7.647    -7.647     0.000
   FeCO3                 1.304e-011  1.304e-011   -10.885   -10.885     0.000
   FeHCO3+               1.462e-013  1.429e-013   -12.835   -12.845    -0.010
Ca              1.228e-004
   Ca+2                  1.170e-004  1.071e-004    -3.932    -3.970    -0.039
   CaCO3                 5.564e-006  5.565e-006    -5.255    -5.255     0.000
   CaOH+                 1.473e-007  1.441e-007    -6.832    -6.841    -0.010
   CaHCO3+               1.136e-007  1.111e-007    -6.944    -6.954    -0.010
   CaSO4                 2.684e-009  2.684e-009    -8.571    -8.571     0.000
   CaHSO4+               1.983e-018  1.939e-018   -17.703   -17.712    -0.010
Fe(2)           7.844e-011
   FeOH+                 4.606e-011  4.504e-011   -10.337   -10.346    -0.010
   Fe+2                  1.919e-011  1.757e-011   -10.717   -10.755    -0.038
   FeCO3                 1.304e-011  1.304e-011   -10.885   -10.885     0.000
   FeHCO3+               1.462e-013  1.429e-013   -12.835   -12.845    -0.010
   FeSO4                 3.925e-016  3.925e-016   -15.406   -15.406     0.000
   Fe(HS)2               3.598e-016  3.599e-016   -15.444   -15.444     0.000
   Fe(HS)3-              6.076e-021  5.941e-021   -20.216   -20.226    -0.010
   FeHSO4+               3.254e-025  3.182e-025   -24.488   -24.497    -0.010
Fe(3)           2.359e-013
   Fe(OH)4-              2.083e-013  2.037e-013   -12.681   -12.691    -0.010
   Fe(OH)3               2.754e-014  2.754e-014   -13.560   -13.560     0.000
   Fe(OH)2+              2.696e-017  2.637e-017   -16.569   -16.579    -0.010
   FeOH+2                1.074e-023  9.820e-024   -22.969   -23.008    -0.039
   Fe+3                  2.281e-031  1.876e-031   -30.642   -30.727    -0.085
   FeSO4+                2.643e-034  2.584e-034   -33.578   -33.588    -0.010
   Fe(SO4)2-             7.265e-040  7.104e-040   -39.139   -39.148    -0.010
   FeHSO4+2              0.000e+000  0.000e+000   -43.030   -43.069    -0.039
   Fe2(OH)2+4            0.000e+000  0.000e+000   -44.430   -44.586    -0.156
   Fe3(OH)4+5            0.000e+000  0.000e+000   -58.601   -58.845    -0.244
H(0)            1.722e-009
   H2                    8.612e-010  8.612e-010    -9.065    -9.065     0.000
O(0)            0.000e+000
   O2                    0.000e+000  0.000e+000   -74.250   -74.250     0.000
S(-2)           1.554e-007
   HS-                   1.551e-007  1.516e-007    -6.809    -6.819    -0.010
   H2S                   1.635e-010  1.635e-010    -9.787    -9.787     0.000
   S-2                   1.623e-010  1.485e-010    -9.790    -9.828    -0.039
   Fe(HS)2               3.598e-016  3.599e-016   -15.444   -15.444     0.000
   Fe(HS)3-              6.076e-021  5.941e-021   -20.216   -20.226    -0.010
S(6)            1.401e-007
   SO4-2                 1.374e-007  1.257e-007    -6.862    -6.901    -0.039
   CaSO4                 2.684e-009  2.684e-009    -8.571    -8.571     0.000
   HSO4-                 1.541e-015  1.507e-015   -14.812   -14.822    -0.010
   FeSO4                 3.925e-016  3.925e-016   -15.406   -15.406     0.000
   CaHSO4+               1.983e-018  1.939e-018   -17.703   -17.712    -0.010
   FeHSO4+               3.254e-025  3.182e-025   -24.488   -24.497    -0.010
   FeSO4+                2.643e-034  2.584e-034   -33.578   -33.588    -0.010
   Fe(SO4)2-             7.265e-040  7.104e-040   -39.139   -39.148    -0.010
   FeHSO4+2              0.000e+000  0.000e+000   -43.030   -43.069    -0.039

------------------------------Saturation indices-------------------------------

	Phase               SI log IAP  log KT

	Anhydrite        -6.51  -10.87   -4.36  CaSO4
	Aragonite        -0.14   -8.48   -8.34  CaCO3
	Calcite           0.00   -8.48   -8.48  CaCO3
	CH4(g)           -4.06   -6.92   -2.86  CH4
	CO2(g)           -6.18   -7.65   -1.47  CO2
	Fe(OH)3(a)       -5.89   -1.00    4.89  Fe(OH)3
	FeS(ppt)         -3.75   -7.67   -3.92  FeS
	Goethite         -0.00   -1.00   -1.00  FeOOH
	Gypsum           -6.29  -10.87   -4.58  CaSO4:2H2O
	H2(g)            -5.91   -9.06   -3.15  H2
	H2O(g)           -1.51   -0.00    1.51  H2O
	H2S(g)           -8.79   -9.79   -1.00  H2S
	Hematite          2.01   -2.00   -4.01  Fe2O3
	Mackinawite      -3.02   -7.67   -4.65  FeS
	Melanterite     -15.45  -17.66   -2.21  FeSO4:7H2O
	O2(g)           -71.36  -74.25   -2.89  O2
	Pyrite            0.00  -18.48  -18.48  FeS2
	Siderite         -4.37  -15.26  -10.89  FeCO3
	Sulfur           -8.75   -3.87    4.88  S

Reaction step 2.

Using solution 1.	PURE WATER
Using pure phase assemblage 1.	
Using reaction 1.	

Reaction 1.	Irreversible reaction defined in simulation 1.

	 1.000e-003 moles of the following reaction have been added:

	                 Relative
	Reactant            moles

	O2                   1.00000

	                 Relative
	Element             moles
	O                    2.00000

-------------------------------Phase assemblage--------------------------------

                                                      Moles in assemblage
Phase                  SI log IAP  log KT      Initial       Final       Delta

Calcite              0.00   -8.48   -8.48   1.000e+001  9.999e+000 -1.057e-003
Goethite            -0.00   -1.00   -1.00   1.000e+001  1.000e+001  2.666e-004
Gypsum              -1.97   -6.55   -4.58   0.000e+000           0  0.000e+000
Pyrite              -0.00  -18.48  -18.48   1.000e+001  1.000e+001 -2.667e-004

-----------------------------Solution composition------------------------------

	Elements           Molality       Moles

	C                1.057e-003  1.057e-003
	Ca               1.057e-003  1.057e-003
	Fe               2.068e-008  2.068e-008
	S                5.333e-004  5.333e-004

----------------------------Description of solution----------------------------

                                       pH  =   7.986      Charge balance
                                       pe  =  -4.053      Adjusted to redox equilibrium
       Specific Conductance (uS/cm, 25 oC) = 218
                          Density (g/cm3)  =   0.99719
                        Activity of water  =   1.000
                           Ionic strength  =  3.446e-003
                       Mass of water (kg)  =  1.000e+000
                 Total alkalinity (eq/kg)  =  1.047e-003
                       Total CO2 (mol/kg)  =  1.057e-003
                      Temperature (deg C)  =  25.000
                  Electrical balance (eq)  = -1.082e-010
 Percent error, 100*(Cat-|An|)/(Cat+|An|)  =  -0.00
                               Iterations  =  23
                                  Total H  = 1.110122e+002
                                  Total O  = 5.551085e+001

----------------------------Distribution of species----------------------------

                                                   Log       Log         Log 
   Species                 Molality    Activity  Molality  Activity     Gamma

   OH-                   1.033e-006  9.683e-007    -5.986    -6.014    -0.028
   H+                    1.096e-008  1.034e-008    -7.960    -7.986    -0.025
   H2O                   5.551e+001  1.000e+000     1.744    -0.000     0.000
C(-4)           1.867e-012
   CH4                   1.867e-012  1.868e-012   -11.729   -11.729     0.000
C(4)            1.057e-003
   HCO3-                 1.014e-003  9.523e-004    -2.994    -3.021    -0.027
   CO2                   2.212e-005  2.214e-005    -4.655    -4.655     0.000
   CaHCO3+               9.916e-006  9.317e-006    -5.004    -5.031    -0.027
   CaCO3                 5.560e-006  5.565e-006    -5.255    -5.255     0.000
   CO3-2                 5.543e-006  4.320e-006    -5.256    -5.365    -0.108
   FeCO3                 1.352e-009  1.353e-009    -8.869    -8.869     0.000
   FeHCO3+               1.326e-009  1.244e-009    -8.878    -8.905    -0.028
Ca              1.057e-003
   Ca+2                  9.845e-004  7.669e-004    -3.007    -3.115    -0.109
   CaSO4                 5.667e-005  5.672e-005    -4.247    -4.246     0.000
   CaHCO3+               9.916e-006  9.317e-006    -5.004    -5.031    -0.027
   CaCO3                 5.560e-006  5.565e-006    -5.255    -5.255     0.000
   CaOH+                 1.312e-008  1.231e-008    -7.882    -7.910    -0.028
   CaHSO4+               3.661e-012  3.435e-012   -11.436   -11.464    -0.028
Fe(2)           2.068e-008
   Fe+2                  1.672e-008  1.306e-008    -7.777    -7.884    -0.107
   FeCO3                 1.352e-009  1.353e-009    -8.869    -8.869     0.000
   FeHCO3+               1.326e-009  1.244e-009    -8.878    -8.905    -0.028
   FeSO4                 8.602e-010  8.609e-010    -9.065    -9.065     0.000
   FeOH+                 4.258e-010  3.995e-010    -9.371    -9.399    -0.028
   FeHSO4+               6.235e-017  5.850e-017   -16.205   -16.233    -0.028
   Fe(HS)2               4.024e-018  4.027e-018   -17.395   -17.395     0.000
   Fe(HS)3-              2.750e-025  2.580e-025   -24.561   -24.588    -0.028
Fe(3)           3.246e-014
   Fe(OH)3               2.752e-014  2.754e-014   -13.560   -13.560     0.000
   Fe(OH)4-              2.590e-015  2.430e-015   -14.587   -14.614    -0.028
   Fe(OH)2+              2.356e-015  2.210e-015   -14.628   -14.656    -0.028
   FeOH+2                8.907e-020  6.901e-020   -19.050   -19.161    -0.111
   FeSO4+                4.787e-025  4.491e-025   -24.320   -24.348    -0.028
   Fe+3                  1.874e-025  1.105e-025   -24.727   -24.957    -0.229
   Fe(SO4)2-             3.882e-027  3.642e-027   -26.411   -26.439    -0.028
   FeHSO4+2              1.605e-032  1.243e-032   -31.795   -31.905    -0.111
   Fe2(OH)2+4            3.558e-037  1.282e-037   -36.449   -36.892    -0.443
   Fe3(OH)4+5            0.000e+000  0.000e+000   -48.535   -49.228    -0.693
H(0)            1.926e-011
   H2                    9.631e-012  9.638e-012   -11.016   -11.016     0.000
O(0)            0.000e+000
   O2                    0.000e+000  0.000e+000   -70.348   -70.348     0.000
S(-2)           6.805e-010
   HS-                   6.274e-010  5.882e-010    -9.202    -9.230    -0.028
   H2S                   5.313e-011  5.317e-011   -10.275   -10.274     0.000
   S-2                   8.834e-015  6.872e-015   -14.054   -14.163    -0.109
   Fe(HS)2               4.024e-018  4.027e-018   -17.395   -17.395     0.000
   Fe(HS)3-              2.750e-025  2.580e-025   -24.561   -24.588    -0.028
S(6)            5.333e-004
   SO4-2                 4.767e-004  3.707e-004    -3.322    -3.431    -0.109
   CaSO4                 5.667e-005  5.672e-005    -4.247    -4.246     0.000
   FeSO4                 8.602e-010  8.609e-010    -9.065    -9.065     0.000
   HSO4-                 3.971e-010  3.726e-010    -9.401    -9.429    -0.028
   CaHSO4+               3.661e-012  3.435e-012   -11.436   -11.464    -0.028
   FeHSO4+               6.235e-017  5.850e-017   -16.205   -16.233    -0.028
   FeSO4+                4.787e-025  4.491e-025   -24.320   -24.348    -0.028
   Fe(SO4)2-             3.882e-027  3.642e-027   -26.411   -26.439    -0.028
   FeHSO4+2              1.605e-032  1.243e-032   -31.795   -31.905    -0.111

------------------------------Saturation indices-------------------------------

	Phase               SI log IAP  log KT

	Anhydrite        -2.19   -6.55   -4.36  CaSO4
	Aragonite        -0.14   -8.48   -8.34  CaCO3
	Calcite           0.00   -8.48   -8.48  CaCO3
	CH4(g)           -8.87  -11.73   -2.86  CH4
	CO2(g)           -3.19   -4.65   -1.47  CO2
	Fe(OH)3(a)       -5.89   -1.00    4.89  Fe(OH)3
	FeS(ppt)         -5.21   -9.13   -3.92  FeS
	Goethite         -0.00   -1.00   -1.00  FeOOH
	Gypsum           -1.97   -6.55   -4.58  CaSO4:2H2O
	H2(g)            -7.87  -11.02   -3.15  H2
	H2O(g)           -1.51   -0.00    1.51  H2O
	H2S(g)           -9.28  -10.27   -1.00  H2S
	Hematite          2.01   -2.00   -4.01  Fe2O3
	Mackinawite      -4.48   -9.13   -4.65  FeS
	Melanterite      -9.11  -11.32   -2.21  FeSO4:7H2O
	O2(g)           -67.46  -70.35   -2.89  O2
	Pyrite           -0.00  -18.48  -18.48  FeS2
	Siderite         -2.36  -13.25  -10.89  FeCO3
	Sulfur           -7.29   -2.41    4.88  S

Reaction step 3.

Using solution 1.	PURE WATER
Using pure phase assemblage 1.	
Using reaction 1.	

Reaction 1.	Irreversible reaction defined in simulation 1.

	 5.000e-003 moles of the following reaction have been added:

	                 Relative
	Reactant            moles

	O2                   1.00000

	                 Relative
	Element             moles
	O                    2.00000

-------------------------------Phase assemblage--------------------------------

                                                      Moles in assemblage
Phase                  SI log IAP  log KT      Initial       Final       Delta

Calcite              0.00   -8.48   -8.48   1.000e+001  9.995e+000 -4.538e-003
Goethite            -0.00   -1.00   -1.00   1.000e+001  1.000e+001  1.332e-003
Gypsum              -0.93   -5.51   -4.58   0.000e+000           0  0.000e+000
Pyrite               0.00  -18.48  -18.48   1.000e+001  9.999e+000 -1.333e-003

-----------------------------Solution composition------------------------------

	Elements           Molality       Moles

	C                4.538e-003  4.538e-003
	Ca               4.538e-003  4.538e-003
	Fe               1.469e-006  1.469e-006
	S                2.667e-003  2.667e-003

----------------------------Description of solution----------------------------

                                       pH  =   6.957      Charge balance
                                       pe  =  -2.677      Adjusted to redox equilibrium
       Specific Conductance (uS/cm, 25 oC) = 798
                          Density (g/cm3)  =   0.99766
                        Activity of water  =   1.000
                           Ionic strength  =  1.357e-002
                       Mass of water (kg)  =  1.000e+000
                 Total alkalinity (eq/kg)  =  3.746e-003
                       Total CO2 (mol/kg)  =  4.538e-003
                      Temperature (deg C)  =  25.000
                  Electrical balance (eq)  = -1.082e-010
 Percent error, 100*(Cat-|An|)/(Cat+|An|)  =  -0.00
                               Iterations  =  24
                                  Total H  = 1.110111e+002
                                  Total O  = 5.552717e+001

----------------------------Distribution of species----------------------------

                                                   Log       Log         Log 
   Species                 Molality    Activity  Molality  Activity     Gamma

   H+                    1.223e-007  1.105e-007    -6.913    -6.957    -0.044
   OH-                   1.022e-007  9.060e-008    -6.991    -7.043    -0.052
   H2O                   5.551e+001  9.998e-001     1.744    -0.000     0.000
C(-4)           1.138e-013
   CH4                   1.138e-013  1.142e-013   -12.944   -12.942     0.001
C(4)            4.538e-003
   HCO3-                 3.619e-003  3.231e-003    -2.441    -2.491    -0.049
   CO2                   8.003e-004  8.028e-004    -3.097    -3.095     0.001
   CaHCO3+               1.115e-004  9.956e-005    -3.953    -4.002    -0.049
   CaCO3                 5.547e-006  5.565e-006    -5.256    -5.255     0.001
   CO3-2                 2.157e-006  1.372e-006    -5.666    -5.863    -0.197
   FeHCO3+               2.440e-007  2.170e-007    -6.613    -6.664    -0.051
   FeCO3                 2.203e-008  2.209e-008    -7.657    -7.656     0.001
Ca              4.538e-003
   Ca+2                  3.801e-003  2.415e-003    -2.420    -2.617    -0.197
   CaSO4                 6.206e-004  6.225e-004    -3.207    -3.206     0.001
   CaHCO3+               1.115e-004  9.956e-005    -3.953    -4.002    -0.049
   CaCO3                 5.547e-006  5.565e-006    -5.256    -5.255     0.001
   CaOH+                 4.080e-009  3.627e-009    -8.389    -8.440    -0.051
   CaHSO4+               4.532e-010  4.029e-010    -9.344    -9.395    -0.051
Fe(2)           1.469e-006
   Fe+2                  1.047e-006  6.715e-007    -5.980    -6.173    -0.193
   FeHCO3+               2.440e-007  2.170e-007    -6.613    -6.664    -0.051
   FeSO4                 1.538e-007  1.543e-007    -6.813    -6.812     0.001
   FeCO3                 2.203e-008  2.209e-008    -7.657    -7.656     0.001
   FeOH+                 2.161e-009  1.922e-009    -8.665    -8.716    -0.051
   FeHSO4+               1.260e-013  1.120e-013   -12.900   -12.951    -0.051
   Fe(HS)2               8.133e-019  8.159e-019   -18.090   -18.088     0.001
   Fe(HS)3-              3.690e-027  3.280e-027   -26.433   -26.484    -0.051
Fe(3)           5.429e-014
   Fe(OH)3               2.745e-014  2.754e-014   -13.561   -13.560     0.001
   Fe(OH)2+              2.657e-014  2.362e-014   -13.576   -13.627    -0.051
   Fe(OH)4-              2.556e-016  2.273e-016   -15.592   -15.643    -0.051
   FeOH+2                1.261e-017  7.882e-018   -16.899   -17.103    -0.204
   FeSO4+                2.149e-021  1.911e-021   -20.668   -20.719    -0.051
   Fe+3                  3.367e-022  1.349e-022   -21.473   -21.870    -0.397
   Fe(SO4)2-             6.074e-023  5.401e-023   -22.217   -22.268    -0.051
   FeHSO4+2              9.047e-028  5.653e-028   -27.043   -27.248    -0.204
   Fe2(OH)2+4            1.097e-032  1.672e-033   -31.960   -32.777    -0.817
   Fe3(OH)4+5            0.000e+000  0.000e+000   -42.807   -44.083    -1.276
H(0)            3.893e-012
   H2                    1.947e-012  1.953e-012   -11.711   -11.709     0.001
O(0)            0.000e+000
   O2                    0.000e+000  0.000e+000   -68.963   -68.961     0.001
S(-2)           7.720e-011
   HS-                   4.165e-011  3.692e-011   -10.380   -10.433    -0.052
   H2S                   3.555e-011  3.567e-011   -10.449   -10.448     0.001
   S-2                   6.386e-017  4.037e-017   -16.195   -16.394    -0.199
   Fe(HS)2               8.133e-019  8.159e-019   -18.090   -18.088     0.001
   Fe(HS)3-              3.690e-027  3.280e-027   -26.433   -26.484    -0.051
S(6)            2.667e-003
   SO4-2                 2.046e-003  1.292e-003    -2.689    -2.889    -0.200
   CaSO4                 6.206e-004  6.225e-004    -3.207    -3.206     0.001
   FeSO4                 1.538e-007  1.543e-007    -6.813    -6.812     0.001
   HSO4-                 1.561e-008  1.388e-008    -7.807    -7.858    -0.051
   CaHSO4+               4.532e-010  4.029e-010    -9.344    -9.395    -0.051
   FeHSO4+               1.260e-013  1.120e-013   -12.900   -12.951    -0.051
   FeSO4+                2.149e-021  1.911e-021   -20.668   -20.719    -0.051
   Fe(SO4)2-             6.074e-023  5.401e-023   -22.217   -22.268    -0.051
   FeHSO4+2              9.047e-028  5.653e-028   -27.043   -27.248    -0.204

------------------------------Saturation indices-------------------------------

	Phase               SI log IAP  log KT

	Anhydrite        -1.15   -5.51   -4.36  CaSO4
	Aragonite        -0.14   -8.48   -8.34  CaCO3
	Calcite           0.00   -8.48   -8.48  CaCO3
	CH4(g)          -10.08  -12.94   -2.86  CH4
	CO2(g)           -1.63   -3.10   -1.47  CO2
	Fe(OH)3(a)       -5.89   -1.00    4.89  Fe(OH)3
	FeS(ppt)         -5.73   -9.65   -3.92  FeS
	Goethite         -0.00   -1.00   -1.00  FeOOH
	Gypsum           -0.93   -5.51   -4.58  CaSO4:2H2O
	H2(g)            -8.56  -11.71   -3.15  H2
	H2O(g)           -1.51   -0.00    1.51  H2O
	H2S(g)           -9.45  -10.45   -1.00  H2S
	Hematite          2.01   -2.00   -4.01  Fe2O3
	Mackinawite      -5.00   -9.65   -4.65  FeS
	Melanterite      -6.85   -9.06   -2.21  FeSO4:7H2O
	O2(g)           -66.07  -68.96   -2.89  O2
	Pyrite            0.00  -18.48  -18.48  FeS2
	Siderite         -1.15  -12.04  -10.89  FeCO3
	Sulfur           -6.77   -1.89    4.88  S

Reaction step 4.

Using solution 1.	PURE WATER
Using pure phase assemblage 1.	
Using reaction 1.	

Reaction 1.	Irreversible reaction defined in simulation 1.

	 1.000e-002 moles of the following reaction have been added:

	                 Relative
	Reactant            moles

	O2                   1.00000

	                 Relative
	Element             moles
	O                    2.00000

-------------------------------Phase assemblage--------------------------------

                                                      Moles in assemblage
Phase                  SI log IAP  log KT      Initial       Final       Delta

Calcite              0.00   -8.48   -8.48   1.000e+001  9.992e+000 -8.151e-003
Goethite            -0.00   -1.00   -1.00   1.000e+001  1.000e+001  2.661e-003
Gypsum              -0.53   -5.11   -4.58   0.000e+000           0  0.000e+000
Pyrite               0.00  -18.48  -18.48   1.000e+001  9.997e+000 -2.667e-003

-----------------------------Solution composition------------------------------

	Elements           Molality       Moles

	C                8.152e-003  8.151e-003
	Ca               8.152e-003  8.151e-003
	Fe               6.445e-006  6.445e-006
	S                5.335e-003  5.334e-003

----------------------------Description of solution----------------------------

                                       pH  =   6.620      Charge balance
                                       pe  =  -2.221      Adjusted to redox equilibrium
       Specific Conductance (uS/cm, 25 oC) = 1303
                          Density (g/cm3)  =   0.99815
                        Activity of water  =   1.000
                           Ionic strength  =  2.313e-002
                       Mass of water (kg)  =  9.999e-001
                 Total alkalinity (eq/kg)  =  5.647e-003
                       Total CO2 (mol/kg)  =  8.152e-003
                      Temperature (deg C)  =  25.000
                  Electrical balance (eq)  = -1.083e-010
 Percent error, 100*(Cat-|An|)/(Cat+|An|)  =  -0.00
                               Iterations  =  24
                                  Total H  = 1.110098e+002
                                  Total O  = 5.554535e+001

----------------------------Distribution of species----------------------------

                                                   Log       Log         Log 
   Species                 Molality    Activity  Molality  Activity     Gamma

   H+                    2.714e-007  2.400e-007    -6.566    -6.620    -0.053
   OH-                   4.854e-008  4.170e-008    -7.314    -7.380    -0.066
   H2O                   5.551e+001  9.997e-001     1.744    -0.000     0.000
C(-4)           3.982e-014
   CH4                   3.982e-014  4.004e-014   -13.400   -13.398     0.002
C(4)            8.152e-003
   HCO3-                 5.383e-003  4.677e-003    -2.269    -2.330    -0.061
   CO2                   2.511e-003  2.525e-003    -2.600    -2.598     0.002
   CaHCO3+               2.489e-004  2.163e-004    -3.604    -3.665    -0.061
   CaCO3                 5.535e-006  5.565e-006    -5.257    -5.255     0.002
   CO3-2                 1.603e-006  9.140e-007    -5.795    -6.039    -0.244
   FeHCO3+               1.305e-006  1.127e-006    -5.884    -5.948    -0.064
   FeCO3                 5.255e-008  5.283e-008    -7.279    -7.277     0.002
Ca              8.152e-003
   Ca+2                  6.358e-003  3.624e-003    -2.197    -2.441    -0.244
   CaSO4                 1.539e-003  1.547e-003    -2.813    -2.810     0.002
   CaHCO3+               2.489e-004  2.163e-004    -3.604    -3.665    -0.061
   CaCO3                 5.535e-006  5.565e-006    -5.257    -5.255     0.002
   CaOH+                 2.901e-009  2.505e-009    -8.537    -8.601    -0.064
   CaHSO4+               2.519e-009  2.175e-009    -8.599    -8.663    -0.064
Fe(2)           6.445e-006
   Fe+2                  4.172e-006  2.409e-006    -5.380    -5.618    -0.238
   FeHCO3+               1.305e-006  1.127e-006    -5.884    -5.948    -0.064
   FeSO4                 9.118e-007  9.167e-007    -6.040    -6.038     0.002
   FeCO3                 5.255e-008  5.283e-008    -7.279    -7.277     0.002
   FeOH+                 3.675e-009  3.174e-009    -8.435    -8.498    -0.064
   FeHSO4+               1.675e-012  1.446e-012   -11.776   -11.840    -0.064
   Fe(HS)2               4.689e-019  4.714e-019   -18.329   -18.327     0.002
   Fe(HS)3-              8.808e-028  7.606e-028   -27.055   -27.119    -0.064
Fe(3)           8.699e-014
   Fe(OH)2+              5.942e-014  5.131e-014   -13.226   -13.290    -0.064
   Fe(OH)3               2.739e-014  2.753e-014   -13.562   -13.560     0.002
   Fe(OH)4-              1.211e-016  1.046e-016   -15.917   -15.980    -0.064
   FeOH+2                6.689e-017  3.720e-017   -16.175   -16.429    -0.255
   FeSO4+                3.758e-020  3.245e-020   -19.425   -19.489    -0.064
   Fe+3                  4.187e-021  1.383e-021   -20.378   -20.859    -0.481
   Fe(SO4)2-             1.759e-021  1.519e-021   -20.755   -20.818    -0.064
   FeHSO4+2              3.750e-026  2.085e-026   -25.426   -25.681    -0.255
   Fe2(OH)2+4            3.894e-031  3.725e-032   -30.410   -31.429    -1.019
   Fe3(OH)4+5            0.000e+000  0.000e+000   -40.806   -42.399    -1.593
H(0)            2.245e-012
   H2                    1.122e-012  1.128e-012   -11.950   -11.948     0.002
O(0)            0.000e+000
   O2                    0.000e+000  0.000e+000   -68.487   -68.485     0.002
S(-2)           4.817e-011
   H2S                   3.093e-011  3.109e-011   -10.510   -10.507     0.002
   HS-                   1.725e-011  1.482e-011   -10.763   -10.829    -0.066
   S-2                   1.320e-017  7.457e-018   -16.879   -17.127    -0.248
   Fe(HS)2               4.689e-019  4.714e-019   -18.329   -18.327     0.002
   Fe(HS)3-              8.808e-028  7.606e-028   -27.055   -27.119    -0.064
S(6)            5.335e-003
   SO4-2                 3.795e-003  2.139e-003    -2.421    -2.670    -0.249
   CaSO4                 1.539e-003  1.547e-003    -2.813    -2.810     0.002
   FeSO4                 9.118e-007  9.167e-007    -6.040    -6.038     0.002
   HSO4-                 5.781e-008  4.992e-008    -7.238    -7.302    -0.064
   CaHSO4+               2.519e-009  2.175e-009    -8.599    -8.663    -0.064
   FeHSO4+               1.675e-012  1.446e-012   -11.776   -11.840    -0.064
   FeSO4+                3.758e-020  3.245e-020   -19.425   -19.489    -0.064
   Fe(SO4)2-             1.759e-021  1.519e-021   -20.755   -20.818    -0.064
   FeHSO4+2              3.750e-026  2.085e-026   -25.426   -25.681    -0.255

------------------------------Saturation indices-------------------------------

	Phase               SI log IAP  log KT

	Anhydrite        -0.75   -5.11   -4.36  CaSO4
	Aragonite        -0.14   -8.48   -8.34  CaCO3
	Calcite           0.00   -8.48   -8.48  CaCO3
	CH4(g)          -10.54  -13.40   -2.86  CH4
	CO2(g)           -1.13   -2.60   -1.47  CO2
	Fe(OH)3(a)       -5.89   -1.00    4.89  Fe(OH)3
	FeS(ppt)         -5.91   -9.83   -3.92  FeS
	Goethite         -0.00   -1.00   -1.00  FeOOH
	Gypsum           -0.53   -5.11   -4.58  CaSO4:2H2O
	H2(g)            -8.80  -11.95   -3.15  H2
	H2O(g)           -1.51   -0.00    1.51  H2O
	H2S(g)           -9.51  -10.51   -1.00  H2S
	Hematite          2.01   -2.00   -4.01  Fe2O3
	Mackinawite      -5.18   -9.83   -4.65  FeS
	Melanterite      -6.08   -8.29   -2.21  FeSO4:7H2O
	O2(g)           -65.59  -68.49   -2.89  O2
	Pyrite            0.00  -18.48  -18.48  FeS2
	Siderite         -0.77  -11.66  -10.89  FeCO3
	Sulfur           -6.59   -1.71    4.88  S

Reaction step 5.

Using solution 1.	PURE WATER
Using pure phase assemblage 1.	
Using reaction 1.	

Reaction 1.	Irreversible reaction defined in simulation 1.

	 5.000e-002 moles of the following reaction have been added:

	                 Relative
	Reactant            moles

	O2                   1.00000

	                 Relative
	Element             moles
	O                    2.00000

-------------------------------Phase assemblage--------------------------------

                                                      Moles in assemblage
Phase                  SI log IAP  log KT      Initial       Final       Delta

Calcite              0.00   -8.48   -8.48   1.000e+001  9.967e+000 -3.306e-002
Goethite             0.00   -1.00   -1.00   1.000e+001  1.001e+001  1.325e-002
Gypsum               0.00   -4.58   -4.58   0.000e+000  1.276e-002  1.276e-002
Pyrite               0.00  -18.48  -18.48   1.000e+001  9.987e+000 -1.334e-002

-----------------------------Solution composition------------------------------

	Elements           Molality       Moles

	C                3.308e-002  3.306e-002
	Ca               2.031e-002  2.030e-002
	Fe               9.140e-005  9.133e-005
	S                1.393e-002  1.392e-002

----------------------------Description of solution----------------------------

                                       pH  =   6.036      Charge balance
                                       pe  =  -1.446      Adjusted to redox equilibrium
       Specific Conductance (uS/cm, 25 oC) = 2733
                          Density (g/cm3)  =   0.99980
                        Activity of water  =   0.999
                           Ionic strength  =  5.227e-002
                       Mass of water (kg)  =  9.993e-001
                 Total alkalinity (eq/kg)  =  1.295e-002
                       Total CO2 (mol/kg)  =  3.308e-002
                      Temperature (deg C)  =  25.000
                  Electrical balance (eq)  = -1.082e-010
 Percent error, 100*(Cat-|An|)/(Cat+|An|)  =  -0.00
                               Iterations  =  25
                                  Total H  = 1.109481e+002
                                  Total O  = 5.560234e+001

----------------------------Distribution of species----------------------------

                                                   Log       Log         Log 
   Species                 Molality    Activity  Molality  Activity     Gamma

   H+                    1.080e-006  9.201e-007    -5.967    -6.036    -0.069
   OH-                   1.344e-008  1.087e-008    -7.872    -7.964    -0.092
   H2O                   5.551e+001  9.990e-001     1.744    -0.000     0.000
C(-4)           9.338e-015
   CH4                   9.338e-015  9.451e-015   -14.030   -14.025     0.005
C(4)            3.308e-002
   CO2                   2.014e-002  2.038e-002    -1.696    -1.691     0.005
   HCO3-                 1.191e-002  9.841e-003    -1.924    -2.007    -0.083
   CaHCO3+               1.003e-003  8.292e-004    -2.998    -3.081    -0.083
   FeHCO3+               2.740e-005  2.244e-005    -4.562    -4.649    -0.087
   CaCO3                 5.498e-006  5.565e-006    -5.260    -5.255     0.005
   CO3-2                 1.076e-006  5.016e-007    -5.968    -6.300    -0.331
   FeCO3                 2.711e-007  2.743e-007    -6.567    -6.562     0.005
Ca              2.031e-002
   Ca+2                  1.412e-002  6.604e-003    -1.850    -2.180    -0.330
   CaSO4                 5.185e-003  5.248e-003    -2.285    -2.280     0.005
   CaHCO3+               1.003e-003  8.292e-004    -2.998    -3.081    -0.083
   CaCO3                 5.498e-006  5.565e-006    -5.260    -5.255     0.005
   CaHSO4+               3.454e-008  2.829e-008    -7.462    -7.548    -0.087
   CaOH+                 1.453e-009  1.190e-009    -8.838    -8.924    -0.087
Fe(2)           9.140e-005
   Fe+2                  4.776e-005  2.280e-005    -4.321    -4.642    -0.321
   FeHCO3+               2.740e-005  2.244e-005    -4.562    -4.649    -0.087
   FeSO4                 1.595e-005  1.615e-005    -4.797    -4.792     0.005
   FeCO3                 2.711e-007  2.743e-007    -6.567    -6.562     0.005
   FeOH+                 9.560e-009  7.828e-009    -8.020    -8.106    -0.087
   FeHSO4+               1.193e-010  9.766e-011    -9.923   -10.010    -0.087
   Fe(HS)2               1.926e-019  1.949e-019   -18.715   -18.710     0.005
   Fe(HS)3-              8.026e-029  6.572e-029   -28.096   -28.182    -0.087
Fe(3)           2.687e-013
   Fe(OH)2+              2.402e-013  1.967e-013   -12.619   -12.706    -0.087
   Fe(OH)3               2.718e-014  2.751e-014   -13.566   -13.560     0.005
   FeOH+2                1.217e-015  5.472e-016   -14.915   -15.262    -0.347
   Fe(OH)4-              3.327e-017  2.724e-017   -16.478   -16.565    -0.087
   FeSO4+                4.162e-018  3.408e-018   -17.381   -17.467    -0.087
   Fe(SO4)2-             3.627e-019  2.970e-019   -18.440   -18.527    -0.087
   Fe+3                  3.295e-019  7.805e-020   -18.482   -19.108    -0.625
   FeHSO4+2              1.868e-023  8.398e-024   -22.729   -23.076    -0.347
   Fe2(OH)2+4            1.971e-028  8.058e-030   -27.705   -29.094    -1.389
   Fe3(OH)4+5            4.894e-038  3.312e-040   -37.310   -39.480    -2.170
H(0)            9.217e-013
   H2                    4.608e-013  4.664e-013   -12.336   -12.331     0.005
O(0)            0.000e+000
   O2                    0.000e+000  0.000e+000   -67.724   -67.718     0.005
S(-2)           2.844e-011
   H2S                   2.461e-011  2.491e-011   -10.609   -10.604     0.005
   HS-                   3.829e-012  3.097e-012   -11.417   -11.509    -0.092
   S-2                   8.866e-019  4.065e-019   -18.052   -18.391    -0.339
   Fe(HS)2               1.926e-019  1.949e-019   -18.715   -18.710     0.005
   Fe(HS)3-              8.026e-029  6.572e-029   -28.096   -28.182    -0.087
S(6)            1.393e-002
   SO4-2                 8.728e-003  3.983e-003    -2.059    -2.400    -0.341
   CaSO4                 5.185e-003  5.248e-003    -2.285    -2.280     0.005
   FeSO4                 1.595e-005  1.615e-005    -4.797    -4.792     0.005
   HSO4-                 4.351e-007  3.563e-007    -6.361    -6.448    -0.087
   CaHSO4+               3.454e-008  2.829e-008    -7.462    -7.548    -0.087
   FeHSO4+               1.193e-010  9.766e-011    -9.923   -10.010    -0.087
   FeSO4+                4.162e-018  3.408e-018   -17.381   -17.467    -0.087
   Fe(SO4)2-             3.627e-019  2.970e-019   -18.440   -18.527    -0.087
   FeHSO4+2              1.868e-023  8.398e-024   -22.729   -23.076    -0.347

------------------------------Saturation indices-------------------------------

	Phase               SI log IAP  log KT

	Anhydrite        -0.22   -4.58   -4.36  CaSO4
	Aragonite        -0.14   -8.48   -8.34  CaCO3
	Calcite           0.00   -8.48   -8.48  CaCO3
	CH4(g)          -11.16  -14.02   -2.86  CH4
	CO2(g)           -0.22   -1.69   -1.47  CO2
	Fe(OH)3(a)       -5.89   -1.00    4.89  Fe(OH)3
	FeS(ppt)         -6.20  -10.11   -3.92  FeS
	Goethite          0.00   -1.00   -1.00  FeOOH
	Gypsum            0.00   -4.58   -4.58  CaSO4:2H2O
	H2(g)            -9.18  -12.33   -3.15  H2
	H2O(g)           -1.51   -0.00    1.51  H2O
	H2S(g)           -9.61  -10.60   -1.00  H2S
	Hematite          2.01   -2.00   -4.01  Fe2O3
	Mackinawite      -5.47  -10.11   -4.65  FeS
	Melanterite      -4.84   -7.05   -2.21  FeSO4:7H2O
	O2(g)           -64.83  -67.72   -2.89  O2
	Pyrite            0.00  -18.48  -18.48  FeS2
	Siderite         -0.05  -10.94  -10.89  FeCO3
	Sulfur           -6.30   -1.42    4.88  S

------------------
End of simulation.
------------------

------------------------------------
Reading input data for simulation 2.
------------------------------------

-----------
End of run.
-----------

