   Input file: ex_ild
  Output file: ex_ild.out
Database file: ../database/phreeqc.dat

------------------
Reading data base.
------------------

	SOLUTION_MASTER_SPECIES
	SOLUTION_SPECIES
	PHASES
	EXCHANGE_MASTER_SPECIES
	EXCHANGE_SPECIES
	SURFACE_MASTER_SPECIES
	SURFACE_SPECIES
	RATES
	END
------------------------------------
Reading input data for simulation 1.
------------------------------------

	DATABASE ../database/phreeqc.dat
	SOLUTION 0
	 K 1
	 Cl 1 charge
	SOLUTION 1
	 Na 1
	 Cl 1 charge
	SOLUTION_SPECIES
	K+ = K+
	 log_k 0
	 gamma 1e10 0
	Na+ = Na+
	 log_k 0
	 gamma 1e10 0
	Cl- = Cl-
	 log_k 0
	 gamma 1e10 0
	Ca+2 + Cl- = CaCl+
	 log_k 1
	EXCHANGE_SPECIES
	CaCl+ + X- = CaClX
	 log_k 2
	 gamma 1e10 0
	EXCHANGE 1
	 X 1e-3
	 equilibrate 1
	END
-------------------------------------------
Beginning of initial solution calculations.
-------------------------------------------

Initial solution 0.	

-----------------------------Solution composition------------------------------

	Elements           Molality       Moles

	Cl               1.000e-003  1.000e-003  Charge balance
	K                1.000e-003  1.000e-003

----------------------------Description of solution----------------------------

                                       pH  =   7.000    
                                       pe  =   4.000    
       Specific Conductance (uS/cm, 25 oC) = 0
                          Density (g/cm3)  =   0.99705
                        Activity of water  =   1.000
                           Ionic strength  =  1.000e-003
                       Mass of water (kg)  =  1.000e+000
                 Total alkalinity (eq/kg)  =  3.367e-010
                    Total carbon (mol/kg)  =  0.000e+000
                       Total CO2 (mol/kg)  =  0.000e+000
                      Temperature (deg C)  =  25.000
                  Electrical balance (eq)  = -4.592e-012
 Percent error, 100*(Cat-|An|)/(Cat+|An|)  =  -0.00
                               Iterations  =   8
                                  Total H  = 1.110124e+002
                                  Total O  = 5.550622e+001

----------------------------Distribution of species----------------------------

                                                   Log       Log         Log 
   Species                 Molality    Activity  Molality  Activity     Gamma

   OH-                   1.038e-007  1.001e-007    -6.984    -7.000    -0.016
   H+                    1.034e-007  1.000e-007    -6.985    -7.000    -0.015
   H2O                   5.551e+001  1.000e+000     1.744    -0.000     0.000
Cl              1.000e-003
   Cl-                   1.000e-003  1.000e-003    -3.000    -3.000    -0.000
H(0)            1.416e-025
   H2                    7.078e-026  7.079e-026   -25.150   -25.150     0.000
K               1.000e-003
   K+                    1.000e-003  1.000e-003    -3.000    -3.000    -0.000
   KOH                   3.466e-011  3.467e-011   -10.460   -10.460     0.000
O(0)            0.000e+000
   O2                    0.000e+000  0.000e+000   -42.080   -42.080     0.000

------------------------------Saturation indices-------------------------------

	Phase               SI log IAP  log KT

	H2(g)           -22.00  -25.15   -3.15  H2
	H2O(g)           -1.51   -0.00    1.51  H2O
	O2(g)           -39.19  -42.08   -2.89  O2

Initial solution 1.	

-----------------------------Solution composition------------------------------

	Elements           Molality       Moles

	Cl               1.000e-003  1.000e-003  Charge balance
	Na               1.000e-003  1.000e-003

----------------------------Description of solution----------------------------

                                       pH  =   7.000    
                                       pe  =   4.000    
       Specific Conductance (uS/cm, 25 oC) = 0
                          Density (g/cm3)  =   0.99705
                        Activity of water  =   1.000
                           Ionic strength  =  1.000e-003
                       Mass of water (kg)  =  1.000e+000
                 Total alkalinity (eq/kg)  =  3.681e-010
                    Total carbon (mol/kg)  =  0.000e+000
                       Total CO2 (mol/kg)  =  0.000e+000
                      Temperature (deg C)  =  25.000
                  Electrical balance (eq)  = -4.592e-012
 Percent error, 100*(Cat-|An|)/(Cat+|An|)  =  -0.00
                               Iterations  =   8
                                  Total H  = 1.110124e+002
                                  Total O  = 5.550622e+001

----------------------------Distribution of species----------------------------

                                                   Log       Log         Log 
   Species                 Molality    Activity  Molality  Activity     Gamma

   OH-                   1.038e-007  1.001e-007    -6.984    -7.000    -0.016
   H+                    1.034e-007  1.000e-007    -6.985    -7.000    -0.015
   H2O                   5.551e+001  1.000e+000     1.744    -0.000     0.000
Cl              1.000e-003
   Cl-                   1.000e-003  1.000e-003    -3.000    -3.000    -0.000
H(0)            1.416e-025
   H2                    7.078e-026  7.079e-026   -25.150   -25.150     0.000
Na              1.000e-003
   Na+                   1.000e-003  1.000e-003    -3.000    -3.000    -0.000
   NaOH                  6.605e-011  6.607e-011   -10.180   -10.180     0.000
O(0)            0.000e+000
   O2                    0.000e+000  0.000e+000   -42.080   -42.080     0.000

------------------------------Saturation indices-------------------------------

	Phase               SI log IAP  log KT

	H2(g)           -22.00  -25.15   -3.15  H2
	H2O(g)           -1.51   -0.00    1.51  H2O
	Halite           -7.58   -6.00    1.58  NaCl
	O2(g)           -39.19  -42.08   -2.89  O2

-------------------------------------------------------
Beginning of initial exchange-composition calculations.
-------------------------------------------------------

Exchange 1.	

X               1.000e-003 mol

	                               Equiv-    Equivalent      Log 
	Species             Moles      alents      Fraction     Gamma

	NaX              1.000e-003  1.000e-003  1.000e+000    -0.015

-----------------------------------------
Beginning of batch-reaction calculations.
-----------------------------------------

Reaction step 1.

Using solution 0.	
Using exchange 1.	Exchange assemblage after simulation 1.

-----------------------------Exchange composition------------------------------

X               1.000e-003 mol

	                               Equiv-    Equivalent      Log 
	Species             Moles      alents      Fraction     Gamma

	KX               6.913e-004  6.913e-004  6.913e-001    -0.016
	NaX              3.087e-004  3.087e-004  3.087e-001    -0.015

-----------------------------Solution composition------------------------------

	Elements           Molality       Moles

	Cl               1.000e-003  1.000e-003
	K                3.087e-004  3.087e-004
	Na               6.913e-004  6.913e-004

----------------------------Description of solution----------------------------

                                       pH  =   7.000      Charge balance
                                       pe  =  11.408      Adjusted to redox equilibrium
       Specific Conductance (uS/cm, 25 oC) = 0
                          Density (g/cm3)  =   0.99705
                        Activity of water  =   1.000
                           Ionic strength  =  1.000e-003
                       Mass of water (kg)  =  1.000e+000
                 Total alkalinity (eq/kg)  =  3.367e-010
                    Total carbon (mol/kg)  =  0.000e+000
                       Total CO2 (mol/kg)  =  0.000e+000
                      Temperature (deg C)  =  25.000
                  Electrical balance (eq)  = -4.592e-012
 Percent error, 100*(Cat-|An|)/(Cat+|An|)  =  -0.00
                               Iterations  =  11
                                  Total H  = 1.110124e+002
                                  Total O  = 5.550622e+001

----------------------------Distribution of species----------------------------

                                                   Log       Log         Log 
   Species                 Molality    Activity  Molality  Activity     Gamma

   OH-                   1.037e-007  1.001e-007    -6.984    -7.000    -0.016
   H+                    1.035e-007  1.000e-007    -6.985    -7.000    -0.015
   H2O                   5.551e+001  1.000e+000     1.744    -0.000     0.000
Cl              1.000e-003
   Cl-                   1.000e-003  1.000e-003    -3.000    -3.000    -0.000
H(0)            2.160e-040
   H2                    1.080e-040  1.080e-040   -39.967   -39.967     0.000
K               3.087e-004
   K+                    3.087e-004  3.087e-004    -3.510    -3.510    -0.000
   KOH                   1.070e-011  1.070e-011   -10.971   -10.970     0.000
Na              6.913e-004
   Na+                   6.913e-004  6.913e-004    -3.160    -3.160    -0.000
   NaOH                  4.565e-011  4.567e-011   -10.341   -10.340     0.000
O(0)            7.144e-013
   O2                    3.572e-013  3.573e-013   -12.447   -12.447     0.000

------------------------------Saturation indices-------------------------------

	Phase               SI log IAP  log KT

	H2(g)           -36.82  -39.97   -3.15  H2
	H2O(g)           -1.51   -0.00    1.51  H2O
	Halite           -7.74   -6.16    1.58  NaCl
	O2(g)            -9.55  -12.45   -2.89  O2

------------------
End of simulation.
------------------

------------------------------------
Reading input data for simulation 2.
------------------------------------

	USER_PRINT
	 10 print sys("K") # with interlayer diffusion: + 0.2e-3 mol K
	TRANSPORT
	 cells 1
	 bcond 1 2
	 shifts 1 0
	 multi_d true 1e-9 1 0.05 1
	 interlayer_d true 1 0.01 1
	 time_step 1e8
	END
WARNING: No cell-lengths were read; length = 1 m assumed.
WARNING: No dispersivities were read; disp = 0 assumed.
------------------------------------
Beginning of transport calculations.
------------------------------------

-------------------------------
Equilibrating initial solutions
-------------------------------

-------------------------------------------------------
Beginning of initial exchange-composition calculations.
-------------------------------------------------------

Exchange 0.	Interlayer diffusion: added 2e-10 moles X-

X               2.000e-010 mol

	                               Equiv-    Equivalent      Log 
	Species             Moles      alents      Fraction     Gamma

	KX               2.000e-010  2.000e-010  1.000e+000    -0.016

Using solution 1.	
Using exchange 1.	Exchange assemblage after simulation 1.

----------------------------------User print-----------------------------------

           0 

-----------------------------Exchange composition------------------------------

X               1.000e-003 mol

	                               Equiv-    Equivalent      Log 
	Species             Moles      alents      Fraction     Gamma

	NaX              1.000e-003  1.000e-003  1.000e+000    -0.015

-----------------------------Solution composition------------------------------

	Elements           Molality       Moles

	Cl               1.000e-003  1.000e-003
	Na               1.000e-003  1.000e-003

----------------------------Description of solution----------------------------

                                       pH  =   7.000      Charge balance
                                       pe  =   4.000      Adjusted to redox equilibrium
       Specific Conductance (uS/cm, 25 oC) = 0
                          Density (g/cm3)  =   0.99705
                        Activity of water  =   1.000
                           Ionic strength  =  1.000e-003
                       Mass of water (kg)  =  1.000e+000
                 Total alkalinity (eq/kg)  =  3.681e-010
                    Total carbon (mol/kg)  =  0.000e+000
                       Total CO2 (mol/kg)  =  0.000e+000
                      Temperature (deg C)  =  25.000
                  Electrical balance (eq)  = -4.592e-012
 Percent error, 100*(Cat-|An|)/(Cat+|An|)  =  -0.00
                               Iterations  =   0
                                  Total H  = 1.110124e+002
                                  Total O  = 5.550622e+001

----------------------------Distribution of species----------------------------

                                                   Log       Log         Log 
   Species                 Molality    Activity  Molality  Activity     Gamma

   OH-                   1.038e-007  1.001e-007    -6.984    -7.000    -0.016
   H+                    1.034e-007  1.000e-007    -6.985    -7.000    -0.015
   H2O                   5.551e+001  1.000e+000     1.744    -0.000     0.000
Cl              1.000e-003
   Cl-                   1.000e-003  1.000e-003    -3.000    -3.000    -0.000
H(0)            1.416e-025
   H2                    7.078e-026  7.079e-026   -25.150   -25.150     0.000
Na              1.000e-003
   Na+                   1.000e-003  1.000e-003    -3.000    -3.000    -0.000
   NaOH                  6.605e-011  6.607e-011   -10.180   -10.180     0.000
O(0)            0.000e+000
   O2                    0.000e+000  0.000e+000   -42.080   -42.080     0.000

------------------------------Saturation indices-------------------------------

	Phase               SI log IAP  log KT

	H2(g)           -22.00  -25.15   -3.15  H2
	H2O(g)           -1.51   -0.00    1.51  H2O
	Halite           -7.58   -6.00    1.58  NaCl
	O2(g)           -39.19  -42.08   -2.89  O2

Transport step   1. Multicomponent diffusion run   1.

Transport step   1. Multicomponent diffusion run   2.

Transport step   1. Multicomponent diffusion run   3.

Transport step   1. Multicomponent diffusion run   4.

Transport step   1. Multicomponent diffusion run   5.

Using mix 1.	 
Using exchange 1.	Exchange assemblage after simulation 2.

Mixture 1.	 

	 0.000e+000 Solution 0	Solution after simulation 2.                           
	 0.000e+000 Solution 2	                                                       
	 1.000e+000 Solution 1	Solution after simulation 2.                           

----------------------------------User print-----------------------------------

 3.6925e-004 

-----------------------------Exchange composition------------------------------

X               1.000e-003 mol

	                               Equiv-    Equivalent      Log 
	Species             Moles      alents      Fraction     Gamma

	NaX              7.071e-004  7.071e-004  7.071e-001    -0.015
	KX               2.929e-004  2.929e-004  2.929e-001    -0.016

-----------------------------Solution composition------------------------------

	Elements           Molality       Moles

	Cl               1.000e-003  1.000e-003
	K                7.633e-005  7.633e-005
	Na               9.237e-004  9.237e-004

----------------------------Description of solution----------------------------

                                       pH  =   7.000      Charge balance
                                       pe  =  10.987      Adjusted to redox equilibrium
       Specific Conductance (uS/cm, 25 oC) = 0
                          Density (g/cm3)  =   0.99705
                        Activity of water  =   1.000
                           Ionic strength  =  1.000e-003
                       Mass of water (kg)  =  1.000e+000
                 Total alkalinity (eq/kg)  =  3.637e-010
                    Total carbon (mol/kg)  =  0.000e+000
                       Total CO2 (mol/kg)  =  0.000e+000
                      Temperature (deg C)  =  25.000
                  Electrical balance (eq)  = -4.592e-012
 Percent error, 100*(Cat-|An|)/(Cat+|An|)  =  -0.00
                               Iterations  =   4
                                  Total H  = 1.110124e+002
                                  Total O  = 5.550622e+001

----------------------------Distribution of species----------------------------

                                                   Log       Log         Log 
   Species                 Molality    Activity  Molality  Activity     Gamma

   OH-                   1.038e-007  1.001e-007    -6.984    -7.000    -0.016
   H+                    1.035e-007  1.000e-007    -6.985    -7.000    -0.015
   H2O                   5.551e+001  1.000e+000     1.744    -0.000     0.000
Cl              1.000e-003
   Cl-                   1.000e-003  1.000e-003    -3.000    -3.000    -0.000
H(0)            1.500e-039
   H2                    7.500e-040  7.502e-040   -39.125   -39.125     0.000
K               7.633e-005
   K+                    7.633e-005  7.633e-005    -4.117    -4.117    -0.000
   KOH                   2.646e-012  2.646e-012   -11.577   -11.577     0.000
Na              9.237e-004
   Na+                   9.237e-004  9.237e-004    -3.034    -3.034    -0.000
   NaOH                  6.101e-011  6.102e-011   -10.215   -10.215     0.000
O(0)            1.481e-014
   O2                    7.405e-015  7.406e-015   -14.130   -14.130     0.000

------------------------------Saturation indices-------------------------------

	Phase               SI log IAP  log KT

	H2(g)           -35.97  -39.12   -3.15  H2
	H2O(g)           -1.51   -0.00    1.51  H2O
	Halite           -7.62   -6.03    1.58  NaCl
	O2(g)           -11.24  -14.13   -2.89  O2

------------------
End of simulation.
------------------

------------------------------------
Reading input data for simulation 3.
------------------------------------

	SOLUTION 0-2
	 Na 1 # needed for exchange
	END
-------------------------------------------
Beginning of initial solution calculations.
-------------------------------------------

Initial solution 0.	

----------------------------------User print-----------------------------------

           0 

-----------------------------Solution composition------------------------------

	Elements           Molality       Moles

	Na               1.000e-003  1.000e-003

----------------------------Description of solution----------------------------

                                       pH  =   7.000    
                                       pe  =   4.000    
       Specific Conductance (uS/cm, 25 oC) = 0
                          Density (g/cm3)  =   0.99705
                        Activity of water  =   1.000
                           Ionic strength  =  5.001e-004
                       Mass of water (kg)  =  1.000e+000
                 Total alkalinity (eq/kg)  =  2.745e-010
                    Total carbon (mol/kg)  =  0.000e+000
                       Total CO2 (mol/kg)  =  0.000e+000
                      Temperature (deg C)  =  25.000
                  Electrical balance (eq)  =  1.000e-003
 Percent error, 100*(Cat-|An|)/(Cat+|An|)  =  99.98
                               Iterations  =   1
                                  Total H  = 1.110124e+002
                                  Total O  = 5.550622e+001

----------------------------Distribution of species----------------------------

                                                   Log       Log         Log 
   Species                 Molality    Activity  Molality  Activity     Gamma

   OH-                   1.027e-007  1.001e-007    -6.988    -7.000    -0.011
   H+                    1.025e-007  1.000e-007    -6.989    -7.000    -0.011
   H2O                   5.551e+001  1.000e+000     1.744    -0.000     0.000
H(0)            1.416e-025
   H2                    7.079e-026  7.079e-026   -25.150   -25.150     0.000
Na              1.000e-003
   Na+                   1.000e-003  1.000e-003    -3.000    -3.000    -0.000
   NaOH                  6.606e-011  6.607e-011   -10.180   -10.180     0.000
O(0)            0.000e+000
   O2                    0.000e+000  0.000e+000   -42.080   -42.080     0.000

------------------------------Saturation indices-------------------------------

	Phase               SI log IAP  log KT

	H2(g)           -22.00  -25.15   -3.15  H2
	H2O(g)           -1.51   -0.00    1.51  H2O
	O2(g)           -39.19  -42.08   -2.89  O2

------------------
End of simulation.
------------------

------------------------------------
Reading input data for simulation 4.
------------------------------------

	PHASES
	 Fix_pkcl
	 KCl = K+ + Cl-
	 log_k 0
	 Fix_pnacl
	 NaCl = Na+ + Cl-
	 log_k 0
	EQUILIBRIUM_PHASES 3
	 Fix_pkcl -6
	 Fix_pnacl -15
	SOLUTION 3
	 K 1
	 Cl 1 charge
	END
-------------------------------------------
Beginning of initial solution calculations.
-------------------------------------------

Initial solution 3.	

----------------------------------User print-----------------------------------

 1.0000e-003 

-----------------------------Solution composition------------------------------

	Elements           Molality       Moles

	Cl               1.000e-003  1.000e-003  Charge balance
	K                1.000e-003  1.000e-003

----------------------------Description of solution----------------------------

                                       pH  =   7.000    
                                       pe  =   4.000    
       Specific Conductance (uS/cm, 25 oC) = 0
                          Density (g/cm3)  =   0.99705
                        Activity of water  =   1.000
                           Ionic strength  =  1.000e-003
                       Mass of water (kg)  =  1.000e+000
                 Total alkalinity (eq/kg)  =  3.367e-010
                    Total carbon (mol/kg)  =  0.000e+000
                       Total CO2 (mol/kg)  =  0.000e+000
                      Temperature (deg C)  =  25.000
                  Electrical balance (eq)  = -4.592e-012
 Percent error, 100*(Cat-|An|)/(Cat+|An|)  =  -0.00
                               Iterations  =   8
                                  Total H  = 1.110124e+002
                                  Total O  = 5.550622e+001

----------------------------Distribution of species----------------------------

                                                   Log       Log         Log 
   Species                 Molality    Activity  Molality  Activity     Gamma

   OH-                   1.038e-007  1.001e-007    -6.984    -7.000    -0.016
   H+                    1.034e-007  1.000e-007    -6.985    -7.000    -0.015
   H2O                   5.551e+001  1.000e+000     1.744    -0.000     0.000
Cl              1.000e-003
   Cl-                   1.000e-003  1.000e-003    -3.000    -3.000    -0.000
H(0)            1.416e-025
   H2                    7.078e-026  7.079e-026   -25.150   -25.150     0.000
K               1.000e-003
   K+                    1.000e-003  1.000e-003    -3.000    -3.000    -0.000
   KOH                   3.466e-011  3.467e-011   -10.460   -10.460     0.000
O(0)            0.000e+000
   O2                    0.000e+000  0.000e+000   -42.080   -42.080     0.000

------------------------------Saturation indices-------------------------------

	Phase               SI log IAP  log KT

	Fix_pkcl         -6.00   -6.00    0.00  KCl
	H2(g)           -22.00  -25.15   -3.15  H2
	H2O(g)           -1.51   -0.00    1.51  H2O
	O2(g)           -39.19  -42.08   -2.89  O2

-----------------------------------------
Beginning of batch-reaction calculations.
-----------------------------------------

Reaction step 1.

Using solution 3.	
Using pure phase assemblage 3.	

----------------------------------User print-----------------------------------

 1.0001e+001 

-------------------------------Phase assemblage--------------------------------

                                                      Moles in assemblage
Phase                  SI log IAP  log KT      Initial       Final       Delta

Fix_pkcl            -6.00   -6.00    0.00   1.000e+001  1.000e+001 -1.832e-010
Fix_pnacl          -15.00  -15.00    0.00   1.000e+001  1.000e+001 -1.000e-012

-----------------------------Solution composition------------------------------

	Elements           Molality       Moles

	Cl               1.000e-003  1.000e-003
	K                1.000e-003  1.000e-003
	Na               1.000e-012  1.000e-012

----------------------------Description of solution----------------------------

                                       pH  =   7.000      Charge balance
                                       pe  =  11.367      Adjusted to redox equilibrium
       Specific Conductance (uS/cm, 25 oC) = 0
                          Density (g/cm3)  =   0.99705
                        Activity of water  =   1.000
                           Ionic strength  =  1.000e-003
                       Mass of water (kg)  =  1.000e+000
                 Total alkalinity (eq/kg)  =  3.367e-010
                    Total carbon (mol/kg)  =  0.000e+000
                       Total CO2 (mol/kg)  =  0.000e+000
                      Temperature (deg C)  =  25.000
                  Electrical balance (eq)  = -4.592e-012
 Percent error, 100*(Cat-|An|)/(Cat+|An|)  =  -0.00
                               Iterations  =  10
                                  Total H  = 1.110124e+002
                                  Total O  = 5.550622e+001

----------------------------Distribution of species----------------------------

                                                   Log       Log         Log 
   Species                 Molality    Activity  Molality  Activity     Gamma

   OH-                   1.038e-007  1.001e-007    -6.984    -7.000    -0.016
   H+                    1.034e-007  1.000e-007    -6.985    -7.000    -0.015
   H2O                   5.551e+001  1.000e+000     1.744    -0.000     0.000
Cl              1.000e-003
   Cl-                   1.000e-003  1.000e-003    -3.000    -3.000    -0.000
H(0)            2.611e-040
   H2                    1.305e-040  1.306e-040   -39.884   -39.884     0.000
K               1.000e-003
   K+                    1.000e-003  1.000e-003    -3.000    -3.000    -0.000
   KOH                   3.466e-011  3.467e-011   -10.460   -10.460     0.000
Na              1.000e-012
   Na+                   1.000e-012  1.000e-012   -12.000   -12.000    -0.000
   NaOH                  6.605e-020  6.607e-020   -19.180   -19.180     0.000
O(0)            4.888e-013
   O2                    2.444e-013  2.445e-013   -12.612   -12.612     0.000

------------------------------Saturation indices-------------------------------

	Phase               SI log IAP  log KT

	Fix_pkcl         -6.00   -6.00    0.00  KCl
	Fix_pnacl       -15.00  -15.00    0.00  NaCl
	H2(g)           -36.73  -39.88   -3.15  H2
	H2O(g)           -1.51   -0.00    1.51  H2O
	Halite          -16.58  -15.00    1.58  NaCl
	O2(g)            -9.72  -12.61   -2.89  O2

------------------
End of simulation.
------------------

------------------------------------
Reading input data for simulation 5.
------------------------------------

	SOLUTION 4
	 Na 1
	 Cl 1 charge
	EXCHANGE 4
	 X 1e-3
	 equilibrate 4
	END
-------------------------------------------
Beginning of initial solution calculations.
-------------------------------------------

Initial solution 4.	

----------------------------------User print-----------------------------------

           0 

-----------------------------Solution composition------------------------------

	Elements           Molality       Moles

	Cl               1.000e-003  1.000e-003  Charge balance
	Na               1.000e-003  1.000e-003

----------------------------Description of solution----------------------------

                                       pH  =   7.000    
                                       pe  =   4.000    
       Specific Conductance (uS/cm, 25 oC) = 0
                          Density (g/cm3)  =   0.99705
                        Activity of water  =   1.000
                           Ionic strength  =  1.000e-003
                       Mass of water (kg)  =  1.000e+000
                 Total alkalinity (eq/kg)  =  3.681e-010
                    Total carbon (mol/kg)  =  0.000e+000
                       Total CO2 (mol/kg)  =  0.000e+000
                      Temperature (deg C)  =  25.000
                  Electrical balance (eq)  = -4.592e-012
 Percent error, 100*(Cat-|An|)/(Cat+|An|)  =  -0.00
                               Iterations  =   8
                                  Total H  = 1.110124e+002
                                  Total O  = 5.550622e+001

----------------------------Distribution of species----------------------------

                                                   Log       Log         Log 
   Species                 Molality    Activity  Molality  Activity     Gamma

   OH-                   1.038e-007  1.001e-007    -6.984    -7.000    -0.016
   H+                    1.034e-007  1.000e-007    -6.985    -7.000    -0.015
   H2O                   5.551e+001  1.000e+000     1.744    -0.000     0.000
Cl              1.000e-003
   Cl-                   1.000e-003  1.000e-003    -3.000    -3.000    -0.000
H(0)            1.416e-025
   H2                    7.078e-026  7.079e-026   -25.150   -25.150     0.000
Na              1.000e-003
   Na+                   1.000e-003  1.000e-003    -3.000    -3.000    -0.000
   NaOH                  6.605e-011  6.607e-011   -10.180   -10.180     0.000
O(0)            0.000e+000
   O2                    0.000e+000  0.000e+000   -42.080   -42.080     0.000

------------------------------Saturation indices-------------------------------

	Phase               SI log IAP  log KT

	Fix_pnacl        -6.00   -6.00    0.00  NaCl
	H2(g)           -22.00  -25.15   -3.15  H2
	H2O(g)           -1.51   -0.00    1.51  H2O
	Halite           -7.58   -6.00    1.58  NaCl
	O2(g)           -39.19  -42.08   -2.89  O2

-------------------------------------------------------
Beginning of initial exchange-composition calculations.
-------------------------------------------------------

Exchange 4.	

X               1.000e-003 mol

	                               Equiv-    Equivalent      Log 
	Species             Moles      alents      Fraction     Gamma

	NaX              1.000e-003  1.000e-003  1.000e+000    -0.015

-----------------------------------------
Beginning of batch-reaction calculations.
-----------------------------------------

Reaction step 1.

Using solution 4.	
Using exchange 4.	Exchange assemblage after simulation 5.

----------------------------------User print-----------------------------------

           0 

-----------------------------Exchange composition------------------------------

X               1.000e-003 mol

	                               Equiv-    Equivalent      Log 
	Species             Moles      alents      Fraction     Gamma

	NaX              1.000e-003  1.000e-003  1.000e+000    -0.015

-----------------------------Solution composition------------------------------

	Elements           Molality       Moles

	Cl               1.000e-003  1.000e-003
	Na               1.000e-003  1.000e-003

----------------------------Description of solution----------------------------

                                       pH  =   7.000      Charge balance
                                       pe  =   4.000      Adjusted to redox equilibrium
       Specific Conductance (uS/cm, 25 oC) = 0
                          Density (g/cm3)  =   0.99705
                        Activity of water  =   1.000
                           Ionic strength  =  1.000e-003
                       Mass of water (kg)  =  1.000e+000
                 Total alkalinity (eq/kg)  =  3.681e-010
                    Total carbon (mol/kg)  =  0.000e+000
                       Total CO2 (mol/kg)  =  0.000e+000
                      Temperature (deg C)  =  25.000
                  Electrical balance (eq)  = -4.592e-012
 Percent error, 100*(Cat-|An|)/(Cat+|An|)  =  -0.00
                               Iterations  =   0
                                  Total H  = 1.110124e+002
                                  Total O  = 5.550622e+001

----------------------------Distribution of species----------------------------

                                                   Log       Log         Log 
   Species                 Molality    Activity  Molality  Activity     Gamma

   OH-                   1.038e-007  1.001e-007    -6.984    -7.000    -0.016
   H+                    1.034e-007  1.000e-007    -6.985    -7.000    -0.015
   H2O                   5.551e+001  1.000e+000     1.744    -0.000     0.000
Cl              1.000e-003
   Cl-                   1.000e-003  1.000e-003    -3.000    -3.000    -0.000
H(0)            1.416e-025
   H2                    7.078e-026  7.079e-026   -25.150   -25.150     0.000
Na              1.000e-003
   Na+                   1.000e-003  1.000e-003    -3.000    -3.000    -0.000
   NaOH                  6.605e-011  6.607e-011   -10.180   -10.180     0.000
O(0)            0.000e+000
   O2                    0.000e+000  0.000e+000   -42.080   -42.080     0.000

------------------------------Saturation indices-------------------------------

	Phase               SI log IAP  log KT

	Fix_pnacl        -6.00   -6.00    0.00  NaCl
	H2(g)           -22.00  -25.15   -3.15  H2
	H2O(g)           -1.51   -0.00    1.51  H2O
	Halite           -7.58   -6.00    1.58  NaCl
	O2(g)           -39.19  -42.08   -2.89  O2

------------------
End of simulation.
------------------

------------------------------------
Reading input data for simulation 6.
------------------------------------

	MIX 3
	 4 0.2
	TRANSPORT
	 stagnant 2
	 print_cells 3-4
	END
------------------------------------
Column data retained from former run
------------------------------------

-----------------------------------------
Beginning of batch-reaction calculations.
-----------------------------------------

Reaction step 1.

Using mix 3.	

Mixture 3.	

	 2.000e-001 Solution 4	                                                       

----------------------------------User print-----------------------------------

           0 

-----------------------------Solution composition------------------------------

	Elements           Molality       Moles

	Cl               1.000e-003  2.000e-004
	Na               1.000e-003  2.000e-004

----------------------------Description of solution----------------------------

                                       pH  =   7.000      Charge balance
                                       pe  =   4.000      Adjusted to redox equilibrium
       Specific Conductance (uS/cm, 25 oC) = 0
                          Density (g/cm3)  =   0.99705
                        Activity of water  =   1.000
                           Ionic strength  =  1.000e-003
                       Mass of water (kg)  =  2.000e-001
                 Total alkalinity (eq/kg)  =  3.681e-010
                    Total carbon (mol/kg)  =  0.000e+000
                       Total CO2 (mol/kg)  =  0.000e+000
                      Temperature (deg C)  =  25.000
                  Electrical balance (eq)  = -9.185e-013
 Percent error, 100*(Cat-|An|)/(Cat+|An|)  =  -0.00
                               Iterations  =   0
                                  Total H  = 2.220249e+001
                                  Total O  = 1.110124e+001

----------------------------Distribution of species----------------------------

                                                   Log       Log         Log 
   Species                 Molality    Activity  Molality  Activity     Gamma

   OH-                   1.038e-007  1.001e-007    -6.984    -7.000    -0.016
   H+                    1.034e-007  1.000e-007    -6.985    -7.000    -0.015
   H2O                   5.551e+001  1.000e+000     1.744    -0.000     0.000
Cl              1.000e-003
   Cl-                   1.000e-003  1.000e-003    -3.000    -3.000    -0.000
H(0)            1.416e-025
   H2                    7.078e-026  7.079e-026   -25.150   -25.150     0.000
Na              1.000e-003
   Na+                   1.000e-003  1.000e-003    -3.000    -3.000    -0.000
   NaOH                  6.605e-011  6.607e-011   -10.180   -10.180     0.000
O(0)            0.000e+000
   O2                    0.000e+000  0.000e+000   -42.080   -42.080     0.000

------------------------------Saturation indices-------------------------------

	Phase               SI log IAP  log KT

	Fix_pnacl        -6.00   -6.00    0.00  NaCl
	H2(g)           -22.00  -25.15   -3.15  H2
	H2O(g)           -1.51   -0.00    1.51  H2O
	Halite           -7.58   -6.00    1.58  NaCl
	O2(g)           -39.19  -42.08   -2.89  O2

------------------------------------
Beginning of transport calculations.
------------------------------------

-------------------------------
Equilibrating initial solutions
-------------------------------

-------------------------------------------------------
Beginning of initial exchange-composition calculations.
-------------------------------------------------------

Exchange 3.	Interlayer diffusion: added 2e-10 moles X-

X               2.000e-010 mol

	                               Equiv-    Equivalent      Log 
	Species             Moles      alents      Fraction     Gamma

	KX               2.000e-010  2.000e-010  1.000e+000    -0.016

Using solution 3.	
Using exchange 3.	Exchange assemblage after simulation 6.
Using pure phase assemblage 3.	

----------------------------------User print-----------------------------------

 1.0001e+001 

-------------------------------Phase assemblage--------------------------------

                                                      Moles in assemblage
Phase                  SI log IAP  log KT      Initial       Final       Delta

Fix_pkcl            -6.00   -6.00    0.00   1.000e+001  1.000e+001 -1.832e-010
Fix_pnacl          -15.00  -15.00    0.00   1.000e+001  1.000e+001 -9.983e-013

-----------------------------Exchange composition------------------------------

X               2.000e-010 mol

	                               Equiv-    Equivalent      Log 
	Species             Moles      alents      Fraction     Gamma

	KX               2.000e-010  2.000e-010  1.000e+000    -0.016
	NaX              3.989e-020  3.989e-020  1.995e-010    -0.015

-----------------------------Solution composition------------------------------

	Elements           Molality       Moles

	Cl               1.000e-003  1.000e-003
	K                1.000e-003  1.000e-003
	Na               1.000e-012  1.000e-012

----------------------------Description of solution----------------------------

                                       pH  =   7.000      Charge balance
                                       pe  =  11.632      Adjusted to redox equilibrium
       Specific Conductance (uS/cm, 25 oC) = 0
                          Density (g/cm3)  =   0.99705
                        Activity of water  =   1.000
                           Ionic strength  =  1.000e-003
                       Mass of water (kg)  =  1.000e+000
                 Total alkalinity (eq/kg)  =  3.367e-010
                    Total carbon (mol/kg)  =  0.000e+000
                       Total CO2 (mol/kg)  =  0.000e+000
                      Temperature (deg C)  =  25.000
                  Electrical balance (eq)  = -4.592e-012
 Percent error, 100*(Cat-|An|)/(Cat+|An|)  =  -0.00
                               Iterations  =  10
                                  Total H  = 1.110124e+002
                                  Total O  = 5.550622e+001

----------------------------Distribution of species----------------------------

                                                   Log       Log         Log 
   Species                 Molality    Activity  Molality  Activity     Gamma

   OH-                   1.038e-007  1.001e-007    -6.984    -7.000    -0.016
   H+                    1.034e-007  1.000e-007    -6.985    -7.000    -0.015
   H2O                   5.551e+001  1.000e+000     1.744    -0.000     0.000
Cl              1.000e-003
   Cl-                   1.000e-003  1.000e-003    -3.000    -3.000    -0.000
H(0)            0.000e+000
   H2                    0.000e+000  0.000e+000   -40.413   -40.413     0.000
K               1.000e-003
   K+                    1.000e-003  1.000e-003    -3.000    -3.000    -0.000
   KOH                   3.466e-011  3.467e-011   -10.460   -10.460     0.000
Na              1.000e-012
   Na+                   1.000e-012  1.000e-012   -12.000   -12.000    -0.000
   NaOH                  6.605e-020  6.607e-020   -19.180   -19.180     0.000
O(0)            5.592e-012
   O2                    2.796e-012  2.797e-012   -11.553   -11.553     0.000

------------------------------Saturation indices-------------------------------

	Phase               SI log IAP  log KT

	Fix_pkcl         -6.00   -6.00    0.00  KCl
	Fix_pnacl       -15.00  -15.00    0.00  NaCl
	H2(g)           -37.26  -40.41   -3.15  H2
	H2O(g)           -1.51   -0.00    1.51  H2O
	Halite          -16.58  -15.00    1.58  NaCl
	O2(g)            -8.66  -11.55   -2.89  O2

Using solution 4.	
Using exchange 4.	Exchange assemblage after simulation 5.

----------------------------------User print-----------------------------------

           0 

-----------------------------Exchange composition------------------------------

X               1.000e-003 mol

	                               Equiv-    Equivalent      Log 
	Species             Moles      alents      Fraction     Gamma

	NaX              1.000e-003  1.000e-003  1.000e+000    -0.015

-----------------------------Solution composition------------------------------

	Elements           Molality       Moles

	Cl               1.000e-003  1.000e-003
	Na               1.000e-003  1.000e-003

----------------------------Description of solution----------------------------

                                       pH  =   7.000      Charge balance
                                       pe  =   4.000      Adjusted to redox equilibrium
       Specific Conductance (uS/cm, 25 oC) = 0
                          Density (g/cm3)  =   0.99705
                        Activity of water  =   1.000
                           Ionic strength  =  1.000e-003
                       Mass of water (kg)  =  1.000e+000
                 Total alkalinity (eq/kg)  =  3.681e-010
                    Total carbon (mol/kg)  =  0.000e+000
                       Total CO2 (mol/kg)  =  0.000e+000
                      Temperature (deg C)  =  25.000
                  Electrical balance (eq)  = -4.592e-012
 Percent error, 100*(Cat-|An|)/(Cat+|An|)  =  -0.00
                               Iterations  =   0
                                  Total H  = 1.110124e+002
                                  Total O  = 5.550622e+001

----------------------------Distribution of species----------------------------

                                                   Log       Log         Log 
   Species                 Molality    Activity  Molality  Activity     Gamma

   OH-                   1.038e-007  1.001e-007    -6.984    -7.000    -0.016
   H+                    1.034e-007  1.000e-007    -6.985    -7.000    -0.015
   H2O                   5.551e+001  1.000e+000     1.744    -0.000     0.000
Cl              1.000e-003
   Cl-                   1.000e-003  1.000e-003    -3.000    -3.000    -0.000
H(0)            1.416e-025
   H2                    7.078e-026  7.079e-026   -25.150   -25.150     0.000
Na              1.000e-003
   Na+                   1.000e-003  1.000e-003    -3.000    -3.000    -0.000
   NaOH                  6.605e-011  6.607e-011   -10.180   -10.180     0.000
O(0)            0.000e+000
   O2                    0.000e+000  0.000e+000   -42.080   -42.080     0.000

------------------------------Saturation indices-------------------------------

	Phase               SI log IAP  log KT

	Fix_pnacl        -6.00   -6.00    0.00  NaCl
	H2(g)           -22.00  -25.15   -3.15  H2
	H2O(g)           -1.51   -0.00    1.51  H2O
	Halite           -7.58   -6.00    1.58  NaCl
	O2(g)           -39.19  -42.08   -2.89  O2

Transport step   1. Multicomponent diffusion run   1.

Transport step   1. Multicomponent diffusion run   2.

Transport step   1. Multicomponent diffusion run   3.

Transport step   1. Multicomponent diffusion run   4.

Transport step   1. Multicomponent diffusion run   5.

Using solution 3.	Solution after simulation 6.
Using exchange 3.	Exchange assemblage after simulation 6.
Using pure phase assemblage 3.	Pure-phase assemblage after simulation 6.

----------------------------------User print-----------------------------------

 9.9997e+000 

-------------------------------Phase assemblage--------------------------------

                                                      Moles in assemblage
Phase                  SI log IAP  log KT      Initial       Final       Delta

Fix_pkcl            -6.00   -6.00    0.00   1.000e+001  9.999e+000 -1.345e-003
Fix_pnacl          -15.00  -15.00    0.00   1.000e+001  1.000e+001  1.345e-003

-----------------------------Exchange composition------------------------------

X               2.000e-010 mol

	                               Equiv-    Equivalent      Log 
	Species             Moles      alents      Fraction     Gamma

	KX               2.000e-010  2.000e-010  1.000e+000    -0.016
	NaX              3.989e-020  3.989e-020  1.995e-010    -0.015

-----------------------------Solution composition------------------------------

	Elements           Molality       Moles

	Cl               1.000e-003  1.000e-003
	K                1.000e-003  1.000e-003
	Na               1.000e-012  1.000e-012

----------------------------Description of solution----------------------------

                                       pH  =   7.000      Charge balance
                                       pe  =  11.556      Adjusted to redox equilibrium
       Specific Conductance (uS/cm, 25 oC) = 0
                          Density (g/cm3)  =   0.99705
                        Activity of water  =   1.000
                           Ionic strength  =  1.000e-003
                       Mass of water (kg)  =  1.000e+000
                 Total alkalinity (eq/kg)  =  3.912e-010
                    Total carbon (mol/kg)  =  0.000e+000
                       Total CO2 (mol/kg)  =  0.000e+000
                      Temperature (deg C)  =  25.000
                  Electrical balance (eq)  = -4.592e-012
 Percent error, 100*(Cat-|An|)/(Cat+|An|)  =  -0.00
                               Iterations  =   5
                                  Total H  = 1.110124e+002
                                  Total O  = 5.550622e+001

----------------------------Distribution of species----------------------------

                                                   Log       Log         Log 
   Species                 Molality    Activity  Molality  Activity     Gamma

   OH-                   1.038e-007  1.001e-007    -6.984    -6.999    -0.016
   H+                    1.034e-007  9.997e-008    -6.985    -7.000    -0.015
   H2O                   5.551e+001  1.000e+000     1.744    -0.000     0.000
Cl              1.000e-003
   Cl-                   1.000e-003  1.000e-003    -3.000    -3.000    -0.000
H(0)            0.000e+000
   H2                    0.000e+000  0.000e+000   -40.262   -40.262     0.000
K               1.000e-003
   K+                    1.000e-003  1.000e-003    -3.000    -3.000    -0.000
   KOH                   3.467e-011  3.468e-011   -10.460   -10.460     0.000
Na              1.000e-012
   Na+                   1.000e-012  1.000e-012   -12.000   -12.000    -0.000
   NaOH                  6.607e-020  6.608e-020   -19.180   -19.180     0.000
O(0)            2.786e-012
   O2                    1.393e-012  1.393e-012   -11.856   -11.856     0.000

------------------------------Saturation indices-------------------------------

	Phase               SI log IAP  log KT

	Fix_pkcl         -6.00   -6.00    0.00  KCl
	Fix_pnacl       -15.00  -15.00    0.00  NaCl
	H2(g)           -37.11  -40.26   -3.15  H2
	H2O(g)           -1.51   -0.00    1.51  H2O
	Halite          -16.58  -15.00    1.58  NaCl
	O2(g)            -8.96  -11.86   -2.89  O2

Using solution 4.	Solution after simulation 6.
Using exchange 4.	Exchange assemblage after simulation 6.

----------------------------------User print-----------------------------------

 1.3446e-003 

-----------------------------Exchange composition------------------------------

X               1.000e-003 mol

	                               Equiv-    Equivalent      Log 
	Species             Moles      alents      Fraction     Gamma

	KX               8.376e-004  8.376e-004  8.376e-001    -0.016
	NaX              1.624e-004  1.624e-004  1.624e-001    -0.015

-----------------------------Solution composition------------------------------

	Elements           Molality       Moles

	Cl               1.000e-003  1.000e-003
	K                5.071e-004  5.071e-004
	Na               4.929e-004  4.929e-004

----------------------------Description of solution----------------------------

                                       pH  =   7.000      Charge balance
                                       pe  =  11.557      Adjusted to redox equilibrium
       Specific Conductance (uS/cm, 25 oC) = 0
                          Density (g/cm3)  =   0.99705
                        Activity of water  =   1.000
                           Ionic strength  =  1.000e-003
                       Mass of water (kg)  =  1.000e+000
                 Total alkalinity (eq/kg)  =  3.136e-010
                    Total carbon (mol/kg)  =  0.000e+000
                       Total CO2 (mol/kg)  =  0.000e+000
                      Temperature (deg C)  =  25.000
                  Electrical balance (eq)  = -4.562e-012
 Percent error, 100*(Cat-|An|)/(Cat+|An|)  =  -0.00
                               Iterations  =   4
                                  Total H  = 1.110124e+002
                                  Total O  = 5.550622e+001

----------------------------Distribution of species----------------------------

                                                   Log       Log         Log 
   Species                 Molality    Activity  Molality  Activity     Gamma

   OH-                   1.037e-007  1.001e-007    -6.984    -7.000    -0.016
   H+                    1.035e-007  1.000e-007    -6.985    -7.000    -0.015
   H2O                   5.551e+001  1.000e+000     1.744    -0.000     0.000
Cl              1.000e-003
   Cl-                   1.000e-003  1.000e-003    -3.000    -3.000    -0.000
H(0)            0.000e+000
   H2                    0.000e+000  0.000e+000   -40.264   -40.264     0.000
K               5.071e-004
   K+                    5.071e-004  5.071e-004    -3.295    -3.295    -0.000
   KOH                   1.757e-011  1.758e-011   -10.755   -10.755     0.000
Na              4.929e-004
   Na+                   4.929e-004  4.929e-004    -3.307    -3.307    -0.000
   NaOH                  3.255e-011  3.256e-011   -10.487   -10.487     0.000
O(0)            2.808e-012
   O2                    1.404e-012  1.404e-012   -11.853   -11.853     0.000

------------------------------Saturation indices-------------------------------

	Phase               SI log IAP  log KT

	Fix_pkcl         -6.29   -6.29    0.00  KCl
	Fix_pnacl        -6.31   -6.31    0.00  NaCl
	H2(g)           -37.11  -40.26   -3.15  H2
	H2O(g)           -1.51   -0.00    1.51  H2O
	Halite           -7.89   -6.31    1.58  NaCl
	O2(g)            -8.96  -11.85   -2.89  O2

------------------
End of simulation.
------------------

------------------------------------
Reading input data for simulation 7.
------------------------------------

-----------
End of run.
-----------

