   Input file: ferri_surface
  Output file: ferri_surface.out
Database file: ../database/minteq.dat

------------------
Reading data base.
------------------

	SOLUTION_MASTER_SPECIES
	SOLUTION_SPECIES
	SOLUTION_SPECIES
	PHASES
	SURFACE_MASTER_SPECIES
	SURFACE_SPECIES
	END
------------------------------------
Reading input data for simulation 1.
------------------------------------

	DATABASE ../database/minteq.dat
	PRINT
	echo_input            true
	eh                    false
	equilibrium_phases    true
	exchange              false
	gas_phase             false
	headings              false
	inverse               false
	kinetics              false
	other                 false
	saturation_indices    false
	solid_solutions       false
	species               false
	surface               true
	totals                true
	user_print            true
	selected_output       false
	status                false
	warnings              -1
	USER_PRINT 
	start
	10 PRINT "		 O(0)             ", TOT("O(0)"), "  ", TOT("O(0)")
	end
	Solution 172
	redox     O(-2)/O(0)
	units     mg/kgw
	water    1 # kg
	TEMP 31.7846393585
	DENSITY 996.067138672
	Al 0.076009543489
	Ca 31.5927151669
	Cl 326.437399018
	Cu 0.0122253877467
	C 125.324046097
	F 0.0166651532054
	Fe 0.209029350975
	K 10.4758542818
	Mg 31.9571996235
	Mn 0.0641924194052
	Na 331.721485812
	N 0.000113471171062
	P 0.000242072012043
	Pb 0.000455468309389
	Si 25.146238327
	S 363.039993842
	Zn 0.0540557554147
	pH 8.03947707606
	O(0) 7.02039527893
	EQUILIBRIUM_PHASES 1
	    Calcite		 0		 0
	    Ferrihydrite		 0		 0
	    Gypsum		 0		 0
	    Gypsum		 0		 0
	    Manganite		 0		 0
	    Jarosite-Na		 0		 0
	    Jarosite-K		 0		 0
	    Alunite		 0		 0
	    Halloysite		 0		 0
	    Malachite		 0		 0
	SURFACE 1
	    equilibrate with solution 172
	    Hfo_sOH Ferrihydrite    equilibrium_phase 0.1    64122.6
	    Hfo_wOH Ferrihydrite    equilibrium_phase 0.001
	END
----------------------------------User print-----------------------------------

   O(0)               4.3877e-004     4.3877e-004 

-----------------------------Solution composition------------------------------

	Elements           Molality       Moles

	Al               2.817e-006  2.817e-006
	C                2.054e-003  2.054e-003
	Ca               7.882e-004  7.882e-004
	Cl               9.208e-003  9.208e-003
	Cu               1.924e-007  1.924e-007
	F                8.772e-007  8.772e-007
	Fe               3.743e-006  3.743e-006
	K                2.679e-004  2.679e-004
	Mg               1.314e-003  1.314e-003
	Mn               1.168e-006  1.168e-006
	N                8.101e-009  8.101e-009
	Na               1.443e-002  1.443e-002
	O(0)             4.388e-004  4.388e-004
	P                7.815e-009  7.815e-009
	Pb               2.198e-009  2.198e-009
	S                3.779e-003  3.779e-003
	Si               2.616e-004  2.616e-004
	Zn               8.269e-007  8.269e-007

----------------------------Description of solution----------------------------

                                       pH  =   8.039    
                                       pe  =   4.000    
                        Activity of water  =   0.999
                           Ionic strength  =  2.297e-002
                       Mass of water (kg)  =  1.000e+000
                 Total alkalinity (eq/kg)  =  2.076e-003
                       Total CO2 (mol/kg)  =  2.054e-003
                      Temperature (deg C)  =  31.785
                  Electrical balance (eq)  =  7.592e-005
 Percent error, 100*(Cat-|An|)/(Cat+|An|)  =   0.21
                               Iterations  =  11
                                  Total H  = 1.110156e+002
                                  Total O  = 5.552901e+001

Hfo           
	 3.353e-028  Surface charge, eq
	undefined  sigma, C/m**2
	 0.000e+000  psi, V
	-0.000e+000  -F*psi/RT
	 1.000e+000  exp(-F*psi/RT)
	 6.412e+004  specific area, m**2/mol Ferrihydrite
	 0.000e+000  m**2 for  0.000e+000 moles of Ferrihydrite


Hfo_s         
	 0.000e+000  moles	[0.1 mol/(mol Ferrihydrite)]
	                                   Mole                     Log
	Species               Moles    Fraction    Molality    Molality

	Hfo_sOZn+        1.511e-028       0.000  1.511e-028     -27.821
	Hfo_sOPb+        6.671e-029       0.000  6.671e-029     -28.176
	Hfo_sOCu+        4.853e-029       0.000  4.853e-029     -28.314
	Hfo_sOHCa+2      3.419e-029       0.000  3.419e-029     -28.466
	Hfo_sOH          1.000e-030       0.000  1.000e-030     -30.000
	Hfo_sOH2+        1.780e-031       0.000  1.780e-031     -30.749
	Hfo_sO-          1.287e-031       0.000  1.287e-031     -30.891
	Hfo_sOHSO4-2     1.110e-032       0.000  1.110e-032     -31.955
	Hfo_sSO4-        9.913e-034       0.000  9.913e-034     -33.004
	Hfo_sPO4-2       7.049e-034       0.000  7.049e-034     -33.152
	Hfo_sHPO4-       3.011e-034       0.000  3.011e-034     -33.521
	Hfo_sH2PO4       2.184e-036       0.000  2.184e-036     -35.661

Hfo_w         
	 0.000e+000  moles	[0.001 mol/(mol Ferrihydrite)]
	                                   Mole                     Log
	Species               Moles    Fraction    Molality    Molality

	Hfo_wOH          1.000e-030       0.000  1.000e-030     -30.000
	Hfo_wOCu+        2.729e-031       0.000  2.729e-031     -30.564
	Hfo_wOH2+        1.780e-031       0.000  1.780e-031     -30.749
	Hfo_wOZn+        1.657e-031       0.000  1.657e-031     -30.781
	Hfo_wO-          1.287e-031       0.000  1.287e-031     -30.891
	Hfo_wOCa+        5.668e-032       0.000  5.668e-032     -31.247
	Hfo_wOHSO4-2     1.110e-032       0.000  1.110e-032     -31.955
	Hfo_wOPb+        2.595e-033       0.000  2.595e-033     -32.586
	Hfo_wSO4-        9.913e-034       0.000  9.913e-034     -33.004
	Hfo_wPO4-2       7.049e-034       0.000  7.049e-034     -33.152
	Hfo_wHPO4-       3.011e-034       0.000  3.011e-034     -33.521
	Hfo_wH2PO4       2.184e-036       0.000  2.184e-036     -35.661

----------------------------------User print-----------------------------------

   O(0)               4.3858e-004     4.3858e-004 

-------------------------------Phase assemblage--------------------------------

                                                      Moles in assemblage
Phase                  SI log IAP  log KT      Initial       Final       Delta

Alunite             -8.47   -9.75   -1.28   0.000e+000           0  0.000e+000
Calcite              0.00   -8.52   -8.52   0.000e+000  1.345e-005  1.345e-005
Ferrihydrite        -0.00    4.89    4.89   0.000e+000  3.737e-006  3.737e-006
Gypsum              -1.58   -6.19   -4.61   0.000e+000           0  0.000e+000
Gypsum              -1.58   -6.19   -4.61   0.000e+000           0  0.000e+000
Halloysite           0.00    8.35    8.35   0.000e+000  1.242e-006  1.242e-006
Jarosite-K          -3.06  -18.37  -15.31   0.000e+000           0  0.000e+000
Jarosite-Na         -4.84  -16.63  -11.79   0.000e+000           0  0.000e+000
Malachite           -2.19   -7.63   -5.43   0.000e+000           0  0.000e+000
Manganite            0.00   -0.24   -0.24   0.000e+000  1.168e-006  1.168e-006

------------------------------Surface composition------------------------------

Hfo           
	 8.070e-008  Surface charge, eq
	 3.250e-002  sigma, C/m**2
	 7.115e-002  psi, V
	-2.708e+000  -F*psi/RT
	 6.668e-002  exp(-F*psi/RT)
	 6.412e+004  specific area, m**2/mol Ferrihydrite
	 2.396e-001  m**2 for  3.737e-006 moles of Ferrihydrite


Hfo_s         
	 3.737e-007  moles	[0.1 mol/(mol Ferrihydrite)]
	                                   Mole                     Log
	Species               Moles    Fraction    Molality    Molality

	Hfo_sOZn+        1.804e-007       0.483  1.804e-007      -6.744
	Hfo_sOCu+        6.057e-008       0.162  6.057e-008      -7.218
	Hfo_sOHSO4-2     6.006e-008       0.161  6.006e-008      -7.221
	Hfo_sO-          3.949e-008       0.106  3.949e-008      -7.404
	Hfo_sOH          2.403e-008       0.064  2.403e-008      -7.619
	Hfo_sOHCa+2      3.597e-009       0.010  3.597e-009      -8.444
	Hfo_sPO4-2       2.516e-009       0.007  2.516e-009      -8.599
	Hfo_sOPb+        2.154e-009       0.006  2.154e-009      -8.667
	Hfo_sSO4-        4.199e-010       0.001  4.199e-010      -9.377
	Hfo_sOH2+        3.351e-010       0.001  3.351e-010      -9.475
	Hfo_sHPO4-       8.416e-011       0.000  8.416e-011     -10.075
	Hfo_sH2PO4       4.780e-014       0.000  4.780e-014     -13.321

Hfo_w         
	 3.737e-009  moles	[0.001 mol/(mol Ferrihydrite)]
	                                   Mole                     Log
	Species               Moles    Fraction    Molality    Molality

	Hfo_wOHSO4-2     1.760e-009       0.471  1.760e-009      -8.755
	Hfo_wO-          1.157e-009       0.310  1.157e-009      -8.937
	Hfo_wOH          7.041e-010       0.188  7.041e-010      -9.152
	Hfo_wPO4-2       7.371e-011       0.020  7.371e-011     -10.132
	Hfo_wSO4-        1.230e-011       0.003  1.230e-011     -10.910
	Hfo_wOCu+        9.978e-012       0.003  9.978e-012     -11.001
	Hfo_wOH2+        9.816e-012       0.003  9.816e-012     -11.008
	Hfo_wOZn+        5.795e-012       0.002  5.795e-012     -11.237
	Hfo_wHPO4-       2.465e-012       0.001  2.465e-012     -11.608
	Hfo_wOCa+        2.230e-012       0.001  2.230e-012     -11.652
	Hfo_wOPb+        2.455e-015       0.000  2.455e-015     -14.610
	Hfo_wH2PO4       1.400e-015       0.000  1.400e-015     -14.854

-----------------------------Solution composition------------------------------

	Elements           Molality       Moles

	Al               3.340e-007  3.340e-007
	C                2.040e-003  2.040e-003
	Ca               7.748e-004  7.748e-004
	Cl               9.208e-003  9.208e-003
	Cu               1.318e-007  1.318e-007
	F                8.772e-007  8.772e-007
	Fe               6.099e-009  6.099e-009
	K                2.679e-004  2.679e-004
	Mg               1.314e-003  1.314e-003
	Mn               1.177e-010  1.177e-010
	N                8.101e-009  8.101e-009
	Na               1.443e-002  1.443e-002
	P                5.139e-009  5.139e-009
	Pb               4.392e-011  4.392e-011
	S                3.779e-003  3.779e-003
	Si               2.591e-004  2.591e-004
	Zn               6.465e-007  6.465e-007

----------------------------Description of solution----------------------------

                                       pH  =   7.970      Charge balance
                                       pe  =  12.087      Adjusted to redox equilibrium
                        Activity of water  =   0.999
                           Ionic strength  =  2.294e-002
                       Mass of water (kg)  =  1.000e+000
                 Total alkalinity (eq/kg)  =  2.035e-003
                       Total CO2 (mol/kg)  =  2.040e-003
                      Temperature (deg C)  =  31.785
                  Electrical balance (eq)  =  7.584e-005
 Percent error, 100*(Cat-|An|)/(Cat+|An|)  =   0.21
                               Iterations  =  23
                                  Total H  = 1.110155e+002
                                  Total O  = 5.552894e+001

	Solution 173
	redox     O(-2)/O(0)
	units     mg/kgw
	water    1 # kg
	TEMP 26.9743099213
	DENSITY 997.76965332
	Al 0.00526409083977
	Ca 31.683221817
	Cl 316.311676025
	Cu 0.00726966233924
	C 134.601125183
	F 0.0161676388234
	Fe 0.000340331607731
	K 10.0218429565
	Mg 30.8276157379
	Mn 1.34543165586e-006
	Na 321.627288818
	N 0.0
	P 1.29740101329e-006
	Pb 0.0
	Si 24.1730480194
	S 345.629638672
	Zn 0.0373720303178
	pH 7.98798847198
	O(0) 1.00000001335e-010
	EQUILIBRIUM_PHASES 1
	    Calcite		 0		 0
	    Ferrihydrite		 0		 0
	    Gypsum		 0		 0
	    Gypsum		 0		 0
	    Manganite		 0		 0
	    Jarosite-Na		 0		 0
	    Jarosite-K		 0		 0
	    Alunite		 0		 0
	    Halloysite		 0		 0
	    Malachite		 0		 0
	SURFACE 1
	    equilibrate with solution 173
	    Hfo_sOH Ferrihydrite    equilibrium_phase 0.1    64122.6
	    Hfo_wOH Ferrihydrite    equilibrium_phase 0.001
	END
----------------------------------User print-----------------------------------

   O(0)               6.2500e-015     6.2500e-015 

-----------------------------Solution composition------------------------------

	Elements           Molality       Moles

	Al               1.951e-007  1.951e-007
	C                2.206e-003  2.206e-003
	Ca               7.905e-004  7.905e-004
	Cl               8.922e-003  8.922e-003
	Cu               1.144e-007  1.144e-007
	F                8.510e-007  8.510e-007
	Fe               6.094e-009  6.094e-009
	K                2.563e-004  2.563e-004
	Mg               1.268e-003  1.268e-003
	Mn               2.449e-011  2.449e-011
	Na               1.399e-002  1.399e-002
	O(0)             6.250e-015  6.250e-015
	P                4.189e-011  4.189e-011
	S                3.598e-003  3.598e-003
	Si               2.515e-004  2.515e-004
	Zn               5.717e-007  5.717e-007

----------------------------Description of solution----------------------------

                                       pH  =   7.988    
                                       pe  =   4.000    
                        Activity of water  =   0.999
                           Ionic strength  =  2.235e-002
                       Mass of water (kg)  =  1.000e+000
                 Total alkalinity (eq/kg)  =  2.197e-003
                       Total CO2 (mol/kg)  =  2.206e-003
                      Temperature (deg C)  =  26.974
                  Electrical balance (eq)  =  4.894e-005
 Percent error, 100*(Cat-|An|)/(Cat+|An|)  =   0.14
                               Iterations  =  12
                                  Total H  = 1.110157e+002
                                  Total O  = 5.552824e+001

Hfo           
	-3.726e-030  Surface charge, eq
	undefined  sigma, C/m**2
	 7.003e-002  psi, V
	-2.708e+000  -F*psi/RT
	 6.668e-002  exp(-F*psi/RT)
	 6.412e+004  specific area, m**2/mol Ferrihydrite
	 0.000e+000  m**2 for  0.000e+000 moles of Ferrihydrite


Hfo_s         
	 0.000e+000  moles	[0.1 mol/(mol Ferrihydrite)]
	                                   Mole                     Log
	Species               Moles    Fraction    Molality    Molality

	Hfo_sOZn+        6.919e-030       0.000  6.919e-030     -29.160
	Hfo_sOHSO4-2     2.415e-030       0.000  2.415e-030     -29.617
	Hfo_sOCu+        2.118e-030       0.000  2.118e-030     -29.674
	Hfo_sO-          1.714e-030       0.000  1.714e-030     -29.766
	Hfo_sOH          1.000e-030       0.000  1.000e-030     -30.000
	Hfo_sOHCa+2      1.561e-031       0.000  1.561e-031     -30.807
	Hfo_sSO4-        1.619e-032       0.000  1.619e-032     -31.791
	Hfo_sOH2+        1.337e-032       0.000  1.337e-032     -31.874
	Hfo_sPO4-2       8.091e-034       0.000  8.091e-034     -33.092
	Hfo_sHPO4-       2.594e-035       0.000  2.594e-035     -34.586
	Hfo_sH2PO4       1.413e-038       0.000  1.413e-038     -37.850

Hfo_w         
	 0.000e+000  moles	[0.001 mol/(mol Ferrihydrite)]
	                                   Mole                     Log
	Species               Moles    Fraction    Molality    Molality

	Hfo_wOHSO4-2     2.415e-030       0.000  2.415e-030     -29.617
	Hfo_wO-          1.714e-030       0.000  1.714e-030     -29.766
	Hfo_wOH          1.000e-030       0.000  1.000e-030     -30.000
	Hfo_wSO4-        1.619e-032       0.000  1.619e-032     -31.791
	Hfo_wOH2+        1.337e-032       0.000  1.337e-032     -31.874
	Hfo_wOCu+        1.191e-032       0.000  1.191e-032     -31.924
	Hfo_wOZn+        7.586e-033       0.000  7.586e-033     -32.120
	Hfo_wOCa+        3.446e-033       0.000  3.446e-033     -32.463
	Hfo_wPO4-2       8.091e-034       0.000  8.091e-034     -33.092
	Hfo_wHPO4-       2.594e-035       0.000  2.594e-035     -34.586
	Hfo_wH2PO4       1.413e-038       0.000  1.413e-038     -37.850

WARNING: Maximum iterations exceeded, 100

WARNING: Numerical method failed with this set of convergence parameters.

WARNING: Trying smaller step size, pe step size 10, 5 ... 

WARNING: Maximum iterations exceeded, 200

WARNING: Numerical method failed with this set of convergence parameters.

WARNING: Trying reduced tolerance 1e-016 ...

----------------------------------User print-----------------------------------

   O(0)               3.4658e-021     3.4658e-021 

-------------------------------Phase assemblage--------------------------------

                                                      Moles in assemblage
Phase                  SI log IAP  log KT      Initial       Final       Delta

Alunite             -7.80   -9.13   -1.33   0.000e+000           0  0.000e+000
Calcite             -0.00   -8.49   -8.49   0.000e+000           0  0.000e+000
Ferrihydrite         0.00    4.89    4.89   0.000e+000  8.839e-015  8.839e-015
Gypsum              -1.58   -6.18   -4.61   0.000e+000           0  0.000e+000
Gypsum              -1.58   -6.18   -4.61   0.000e+000           0  0.000e+000
Halloysite           0.00    8.80    8.80   0.000e+000  1.707e-011  1.707e-011
Jarosite-K          -3.52  -18.47  -14.95   0.000e+000           0  0.000e+000
Jarosite-Na         -5.35  -16.73  -11.37   0.000e+000           0  0.000e+000
Malachite           -2.50   -7.76   -5.26   0.000e+000           0  0.000e+000
Manganite           -4.19   -4.43   -0.24   0.000e+000           0  0.000e+000

------------------------------Surface composition------------------------------

Hfo           
	 1.849e-016  Surface charge, eq
	 3.148e-002  sigma, C/m**2
	 6.954e-002  psi, V
	-2.689e+000  -F*psi/RT
	 6.795e-002  exp(-F*psi/RT)
	 6.412e+004  specific area, m**2/mol Ferrihydrite
	 5.668e-010  m**2 for  8.839e-015 moles of Ferrihydrite


Hfo_s         
	 8.839e-016  moles	[0.1 mol/(mol Ferrihydrite)]
	                                   Mole                     Log
	Species               Moles    Fraction    Molality    Molality

	Hfo_sOZn+        4.325e-016       0.489  4.325e-016     -15.364
	Hfo_sOHSO4-2     1.427e-016       0.161  1.427e-016     -15.846
	Hfo_sOCu+        1.324e-016       0.150  1.324e-016     -15.878
	Hfo_sO-          1.032e-016       0.117  1.032e-016     -15.986
	Hfo_sOH          6.135e-017       0.069  6.135e-017     -16.212
	Hfo_sOHCa+2      9.940e-018       0.011  9.940e-018     -17.003
	Hfo_sSO4-        9.747e-019       0.001  9.747e-019     -18.011
	Hfo_sOH2+        8.356e-019       0.001  8.356e-019     -18.078
	Hfo_sPO4-2       4.781e-020       0.000  4.781e-020     -19.321
	Hfo_sHPO4-       1.562e-021       0.000  1.562e-021     -20.806
	Hfo_sH2PO4       8.667e-025       0.000  8.667e-025     -24.062

Hfo_w         
	 8.839e-018  moles	[0.001 mol/(mol Ferrihydrite)]
	                                   Mole                     Log
	Species               Moles    Fraction    Molality    Molality

	Hfo_wOHSO4-2     4.062e-018       0.460  4.062e-018     -17.391
	Hfo_wO-          2.937e-018       0.332  2.937e-018     -17.532
	Hfo_wOH          1.746e-018       0.198  1.746e-018     -17.758
	Hfo_wSO4-        2.775e-020       0.003  2.775e-020     -19.557
	Hfo_wOH2+        2.378e-020       0.003  2.378e-020     -19.624
	Hfo_wOCu+        2.120e-020       0.002  2.120e-020     -19.674
	Hfo_wOZn+        1.350e-020       0.002  1.350e-020     -19.870
	Hfo_wOCa+        6.131e-021       0.001  6.131e-021     -20.212
	Hfo_wPO4-2       1.361e-021       0.000  1.361e-021     -20.866
	Hfo_wHPO4-       4.446e-023       0.000  4.446e-023     -22.352
	Hfo_wH2PO4       2.467e-026       0.000  2.467e-026     -25.608

-----------------------------Solution composition------------------------------

	Elements           Molality       Moles

	Al               1.951e-007  1.951e-007
	C                2.206e-003  2.206e-003
	Ca               7.905e-004  7.905e-004
	Cl               8.922e-003  8.922e-003
	Cu               1.144e-007  1.144e-007
	F                8.510e-007  8.510e-007
	Fe               6.094e-009  6.094e-009
	K                2.563e-004  2.563e-004
	Mg               1.268e-003  1.268e-003
	Mn               2.449e-011  2.449e-011
	Na               1.399e-002  1.399e-002
	P                4.189e-011  4.189e-011
	S                3.598e-003  3.598e-003
	Si               2.515e-004  2.515e-004
	Zn               5.717e-007  5.717e-007

----------------------------Description of solution----------------------------

                                       pH  =   7.988      Charge balance
                                       pe  =   8.180      Adjusted to redox equilibrium
                        Activity of water  =   0.999
                           Ionic strength  =  2.235e-002
                       Mass of water (kg)  =  1.000e+000
                 Total alkalinity (eq/kg)  =  2.197e-003
                       Total CO2 (mol/kg)  =  2.206e-003
                      Temperature (deg C)  =  26.974
                  Electrical balance (eq)  =  4.894e-005
 Percent error, 100*(Cat-|An|)/(Cat+|An|)  =   0.14
                               Iterations  =  16
                                  Total H  = 1.110157e+002
                                  Total O  = 5.552824e+001

	Solution 174
	redox     O(-2)/O(0)
	units     mg/kgw
	water    1 # kg
	TEMP 26.9743099213
	DENSITY 997.973510742
	Al 0.0052371090278
	Ca 31.767408371
	Cl 316.382568359
	Cu 0.00726330792531
	C 134.906155014
	F 0.0161714386195
	Fe 0.00034027575748
	K 10.0218429565
	Mg 30.8276157379
	Mn 1.36411051699e-006
	Na 321.857208252
	N 0.0
	P 2.87744256866e-007
	Pb 0.0
	Si 24.1730480194
	S 345.725708008
	Zn 0.0373851023614
	pH 7.9859995842
	O(0) 1.00000001335e-010
	EQUILIBRIUM_PHASES 1
	    Calcite		 0		 0
	    Ferrihydrite		 0		 0
	    Gypsum		 0		 0
	    Gypsum		 0		 0
	    Manganite		 0		 0
	    Jarosite-Na		 0		 0
	    Jarosite-K		 0		 0
	    Alunite		 0		 0
	    Halloysite		 0		 0
	    Malachite		 0		 0
	SURFACE 1
	    equilibrate with solution 174
	    Hfo_sOH Ferrihydrite    equilibrium_phase 0.1    64122.6
	    Hfo_wOH Ferrihydrite    equilibrium_phase 0.001
	END
----------------------------------User print-----------------------------------

   O(0)               6.2500e-015     6.2500e-015 

-----------------------------Solution composition------------------------------

	Elements           Molality       Moles

	Al               1.941e-007  1.941e-007
	C                2.211e-003  2.211e-003
	Ca               7.926e-004  7.926e-004
	Cl               8.924e-003  8.924e-003
	Cu               1.143e-007  1.143e-007
	F                8.512e-007  8.512e-007
	Fe               6.093e-009  6.093e-009
	K                2.563e-004  2.563e-004
	Mg               1.268e-003  1.268e-003
	Mn               2.483e-011  2.483e-011
	Na               1.400e-002  1.400e-002
	O(0)             6.250e-015  6.250e-015
	P                9.290e-012  9.290e-012
	S                3.599e-003  3.599e-003
	Si               2.515e-004  2.515e-004
	Zn               5.719e-007  5.719e-007

----------------------------Description of solution----------------------------

                                       pH  =   7.986    
                                       pe  =   4.000    
                        Activity of water  =   0.999
                           Ionic strength  =  2.236e-002
                       Mass of water (kg)  =  1.000e+000
                 Total alkalinity (eq/kg)  =  2.202e-003
                       Total CO2 (mol/kg)  =  2.211e-003
                      Temperature (deg C)  =  26.974
                  Electrical balance (eq)  =  5.451e-005
 Percent error, 100*(Cat-|An|)/(Cat+|An|)  =   0.16
                               Iterations  =  12
                                  Total H  = 1.110157e+002
                                  Total O  = 5.552825e+001

Hfo           
	-3.117e-030  Surface charge, eq
	undefined  sigma, C/m**2
	 6.954e-002  psi, V
	-2.689e+000  -F*psi/RT
	 6.795e-002  exp(-F*psi/RT)
	 6.412e+004  specific area, m**2/mol Ferrihydrite
	 0.000e+000  m**2 for  0.000e+000 moles of Ferrihydrite


Hfo_s         
	 0.000e+000  moles	[0.1 mol/(mol Ferrihydrite)]
	                                   Mole                     Log
	Species               Moles    Fraction    Molality    Molality

	Hfo_sOZn+        7.031e-030       0.000  7.031e-030     -29.153
	Hfo_sOHSO4-2     2.326e-030       0.000  2.326e-030     -29.633
	Hfo_sOCu+        2.163e-030       0.000  2.163e-030     -29.665
	Hfo_sO-          1.674e-030       0.000  1.674e-030     -29.776
	Hfo_sOH          1.000e-030       0.000  1.000e-030     -30.000
	Hfo_sOHCa+2      1.624e-031       0.000  1.624e-031     -30.789
	Hfo_sSO4-        1.596e-032       0.000  1.596e-032     -31.797
	Hfo_sOH2+        1.368e-032       0.000  1.368e-032     -31.864
	Hfo_sPO4-2       1.728e-034       0.000  1.728e-034     -33.762
	Hfo_sHPO4-       5.671e-036       0.000  5.671e-036     -35.246
	Hfo_sH2PO4       3.161e-039       0.000  3.161e-039     -38.500

Hfo_w         
	 0.000e+000  moles	[0.001 mol/(mol Ferrihydrite)]
	                                   Mole                     Log
	Species               Moles    Fraction    Molality    Molality

	Hfo_wOHSO4-2     2.326e-030       0.000  2.326e-030     -29.633
	Hfo_wO-          1.674e-030       0.000  1.674e-030     -29.776
	Hfo_wOH          1.000e-030       0.000  1.000e-030     -30.000
	Hfo_wSO4-        1.596e-032       0.000  1.596e-032     -31.797
	Hfo_wOH2+        1.368e-032       0.000  1.368e-032     -31.864
	Hfo_wOCu+        1.217e-032       0.000  1.217e-032     -31.915
	Hfo_wOZn+        7.710e-033       0.000  7.710e-033     -32.113
	Hfo_wOCa+        3.504e-033       0.000  3.504e-033     -32.455
	Hfo_wPO4-2       1.728e-034       0.000  1.728e-034     -33.762
	Hfo_wHPO4-       5.671e-036       0.000  5.671e-036     -35.246
	Hfo_wH2PO4       3.161e-039       0.000  3.161e-039     -38.500

----------------------------------User print-----------------------------------

   O(0)               1.1848e-013     1.1848e-013 

-------------------------------Phase assemblage--------------------------------

                                                      Moles in assemblage
Phase                  SI log IAP  log KT      Initial       Final       Delta

Alunite             -7.80   -9.13   -1.33   0.000e+000           0  0.000e+000
Calcite             -0.00   -8.49   -8.49   0.000e+000  9.793e-009  9.793e-009
Ferrihydrite        -0.00    4.89    4.89   0.000e+000           0  0.000e+000
Gypsum              -1.57   -6.18   -4.61   0.000e+000           0  0.000e+000
Gypsum              -1.57   -6.18   -4.61   0.000e+000           0  0.000e+000
Halloysite          -0.00    8.80    8.80   0.000e+000           0  0.000e+000
Jarosite-K          -3.51  -18.46  -14.95   0.000e+000           0  0.000e+000
Jarosite-Na         -5.35  -16.72  -11.37   0.000e+000           0  0.000e+000
Malachite           -2.50   -7.76   -5.26   0.000e+000           0  0.000e+000
Manganite           -2.30   -2.54   -0.24   0.000e+000           0  0.000e+000

------------------------------Surface composition------------------------------

Hfo           
	-3.116e-030  Surface charge, eq
	undefined  sigma, C/m**2
	 6.954e-002  psi, V
	-2.689e+000  -F*psi/RT
	 6.795e-002  exp(-F*psi/RT)
	 6.412e+004  specific area, m**2/mol Ferrihydrite
	 0.000e+000  m**2 for  0.000e+000 moles of Ferrihydrite


Hfo_s         
	 0.000e+000  moles	[0.1 mol/(mol Ferrihydrite)]
	                                   Mole                     Log
	Species               Moles    Fraction    Molality    Molality

	Hfo_sOZn+        7.031e-030       0.000  7.031e-030     -29.153
	Hfo_sOHSO4-2     2.326e-030       0.000  2.326e-030     -29.633
	Hfo_sOCu+        2.164e-030       0.000  2.164e-030     -29.665
	Hfo_sO-          1.674e-030       0.000  1.674e-030     -29.776
	Hfo_sOH          1.000e-030       0.000  1.000e-030     -30.000
	Hfo_sOHCa+2      1.624e-031       0.000  1.624e-031     -30.789
	Hfo_sSO4-        1.596e-032       0.000  1.596e-032     -31.797
	Hfo_sOH2+        1.368e-032       0.000  1.368e-032     -31.864
	Hfo_sPO4-2       1.728e-034       0.000  1.728e-034     -33.762
	Hfo_sHPO4-       5.672e-036       0.000  5.672e-036     -35.246
	Hfo_sH2PO4       3.162e-039       0.000  3.162e-039     -38.500

Hfo_w         
	 0.000e+000  moles	[0.001 mol/(mol Ferrihydrite)]
	                                   Mole                     Log
	Species               Moles    Fraction    Molality    Molality

	Hfo_wOHSO4-2     2.326e-030       0.000  2.326e-030     -29.633
	Hfo_wO-          1.674e-030       0.000  1.674e-030     -29.776
	Hfo_wOH          1.000e-030       0.000  1.000e-030     -30.000
	Hfo_wSO4-        1.596e-032       0.000  1.596e-032     -31.797
	Hfo_wOH2+        1.368e-032       0.000  1.368e-032     -31.864
	Hfo_wOCu+        1.217e-032       0.000  1.217e-032     -31.915
	Hfo_wOZn+        7.709e-033       0.000  7.709e-033     -32.113
	Hfo_wOCa+        3.503e-033       0.000  3.503e-033     -32.456
	Hfo_wPO4-2       1.728e-034       0.000  1.728e-034     -33.762
	Hfo_wHPO4-       5.672e-036       0.000  5.672e-036     -35.246
	Hfo_wH2PO4       3.162e-039       0.000  3.162e-039     -38.500

-----------------------------Solution composition------------------------------

	Elements           Molality       Moles

	Al               1.941e-007  1.941e-007
	C                2.211e-003  2.211e-003
	Ca               7.926e-004  7.926e-004
	Cl               8.924e-003  8.924e-003
	Cu               1.143e-007  1.143e-007
	F                8.512e-007  8.512e-007
	Fe               6.093e-009  6.093e-009
	K                2.563e-004  2.563e-004
	Mg               1.268e-003  1.268e-003
	Mn               2.483e-011  2.483e-011
	Na               1.400e-002  1.400e-002
	P                9.290e-012  9.290e-012
	S                3.599e-003  3.599e-003
	Si               2.515e-004  2.515e-004
	Zn               5.719e-007  5.719e-007

----------------------------Description of solution----------------------------

                                       pH  =   7.986      Charge balance
                                       pe  =  10.065      Adjusted to redox equilibrium
                        Activity of water  =   0.999
                           Ionic strength  =  2.236e-002
                       Mass of water (kg)  =  1.000e+000
                 Total alkalinity (eq/kg)  =  2.202e-003
                       Total CO2 (mol/kg)  =  2.211e-003
                      Temperature (deg C)  =  26.974
                  Electrical balance (eq)  =  5.451e-005
 Percent error, 100*(Cat-|An|)/(Cat+|An|)  =   0.16
                               Iterations  =  12
                                  Total H  = 1.110157e+002
                                  Total O  = 5.552825e+001

	Solution 175
	redox     O(-2)/O(0)
	units     mg/kgw
	water    1 # kg
	TEMP 26.9743099213
	DENSITY 998.183227539
	Al 0.00519393896684
	Ca 31.927728653
	Cl 316.418029785
	Cu 0.0072505986318
	C 135.455297852
	F 0.0161733385175
	Fe 0.000340219936334
	K 10.0257530212
	Mg 30.8276157379
	Mn 1.39927090004e-006
	Na 321.857208252
	N 0.0
	P 3.84073359783e-008
	Pb 0.0
	Si 24.1826591492
	S 345.821746826
	Zn 0.0373981781304
	pH 7.98199939728
	O(0) 1.00000001335e-010
	EQUILIBRIUM_PHASES 1
	    Calcite		 0		 0
	    Ferrihydrite		 0		 0
	    Gypsum		 0		 0
	    Gypsum		 0		 0
	    Manganite		 0		 0
	    Jarosite-Na		 0		 0
	    Jarosite-K		 0		 0
	    Alunite		 0		 0
	    Halloysite		 0		 0
	    Malachite		 0		 0
	SURFACE 1
	    equilibrate with solution 175
	    Hfo_sOH Ferrihydrite    equilibrium_phase 0.1    64122.6
	    Hfo_wOH Ferrihydrite    equilibrium_phase 0.001
	END
----------------------------------User print-----------------------------------

   O(0)               6.2500e-015     6.2500e-015 

-----------------------------Solution composition------------------------------

	Elements           Molality       Moles

	Al               1.925e-007  1.925e-007
	C                2.220e-003  2.220e-003
	Ca               7.966e-004  7.966e-004
	Cl               8.925e-003  8.925e-003
	Cu               1.141e-007  1.141e-007
	F                8.513e-007  8.513e-007
	Fe               6.092e-009  6.092e-009
	K                2.564e-004  2.564e-004
	Mg               1.268e-003  1.268e-003
	Mn               2.547e-011  2.547e-011
	Na               1.400e-002  1.400e-002
	O(0)             6.250e-015  6.250e-015
	P                1.240e-012  1.240e-012
	S                3.600e-003  3.600e-003
	Si               2.516e-004  2.516e-004
	Zn               5.721e-007  5.721e-007

----------------------------Description of solution----------------------------

                                       pH  =   7.982    
                                       pe  =   4.000    
                        Activity of water  =   0.999
                           Ionic strength  =  2.237e-002
                       Mass of water (kg)  =  1.000e+000
                 Total alkalinity (eq/kg)  =  2.210e-003
                       Total CO2 (mol/kg)  =  2.220e-003
                      Temperature (deg C)  =  26.974
                  Electrical balance (eq)  =  5.134e-005
 Percent error, 100*(Cat-|An|)/(Cat+|An|)  =   0.15
                               Iterations  =  12
                                  Total H  = 1.110157e+002
                                  Total O  = 5.552829e+001

Hfo           
	-3.111e-030  Surface charge, eq
	undefined  sigma, C/m**2
	 6.954e-002  psi, V
	-2.689e+000  -F*psi/RT
	 6.795e-002  exp(-F*psi/RT)
	 6.412e+004  specific area, m**2/mol Ferrihydrite
	 0.000e+000  m**2 for  0.000e+000 moles of Ferrihydrite


Hfo_s         
	 0.000e+000  moles	[0.1 mol/(mol Ferrihydrite)]
	                                   Mole                     Log
	Species               Moles    Fraction    Molality    Molality

	Hfo_sOZn+        6.993e-030       0.000  6.993e-030     -29.155
	Hfo_sOHSO4-2     2.326e-030       0.000  2.326e-030     -29.633
	Hfo_sOCu+        2.174e-030       0.000  2.174e-030     -29.663
	Hfo_sO-          1.659e-030       0.000  1.659e-030     -29.780
	Hfo_sOH          1.000e-030       0.000  1.000e-030     -30.000
	Hfo_sOHCa+2      1.633e-031       0.000  1.633e-031     -30.787
	Hfo_sSO4-        1.611e-032       0.000  1.611e-032     -31.793
	Hfo_sOH2+        1.381e-032       0.000  1.381e-032     -31.860
	Hfo_sPO4-2       2.305e-035       0.000  2.305e-035     -34.637
	Hfo_sHPO4-       7.636e-037       0.000  7.636e-037     -36.117
	Hfo_sH2PO4       4.296e-040       0.000  4.296e-040     -39.367

Hfo_w         
	 0.000e+000  moles	[0.001 mol/(mol Ferrihydrite)]
	                                   Mole                     Log
	Species               Moles    Fraction    Molality    Molality

	Hfo_wOHSO4-2     2.326e-030       0.000  2.326e-030     -29.633
	Hfo_wO-          1.659e-030       0.000  1.659e-030     -29.780
	Hfo_wOH          1.000e-030       0.000  1.000e-030     -30.000
	Hfo_wSO4-        1.611e-032       0.000  1.611e-032     -31.793
	Hfo_wOH2+        1.381e-032       0.000  1.381e-032     -31.860
	Hfo_wOCu+        1.222e-032       0.000  1.222e-032     -31.913
	Hfo_wOZn+        7.668e-033       0.000  7.668e-033     -32.115
	Hfo_wOCa+        3.489e-033       0.000  3.489e-033     -32.457
	Hfo_wPO4-2       2.305e-035       0.000  2.305e-035     -34.637
	Hfo_wHPO4-       7.636e-037       0.000  7.636e-037     -36.117
	Hfo_wH2PO4       4.296e-040       0.000  4.296e-040     -39.367

----------------------------------User print-----------------------------------

   O(0)               2.4012e-021     2.4012e-021 

-------------------------------Phase assemblage--------------------------------

                                                      Moles in assemblage
Phase                  SI log IAP  log KT      Initial       Final       Delta

Alunite             -7.79   -9.11   -1.33   0.000e+000           0  0.000e+000
Calcite             -0.00   -8.49   -8.49   0.000e+000           0  0.000e+000
Ferrihydrite        -0.00    4.89    4.89   0.000e+000  3.667e-013  3.667e-013
Gypsum              -1.57   -6.18   -4.61   0.000e+000           0  0.000e+000
Gypsum              -1.57   -6.18   -4.61   0.000e+000           0  0.000e+000
Halloysite           0.00    8.80    8.80   0.000e+000  3.483e-011  3.483e-011
Jarosite-K          -3.50  -18.45  -14.95   0.000e+000           0  0.000e+000
Jarosite-Na         -5.34  -16.71  -11.37   0.000e+000           0  0.000e+000
Malachite           -2.50   -7.76   -5.26   0.000e+000           0  0.000e+000
Manganite           -4.22   -4.46   -0.24   0.000e+000           0  0.000e+000

------------------------------Surface composition------------------------------

Hfo           
	 7.674e-015  Surface charge, eq
	 3.150e-002  sigma, C/m**2
	 6.954e-002  psi, V
	-2.689e+000  -F*psi/RT
	 6.796e-002  exp(-F*psi/RT)
	 6.412e+004  specific area, m**2/mol Ferrihydrite
	 2.351e-008  m**2 for  3.667e-013 moles of Ferrihydrite


Hfo_s         
	 3.667e-014  moles	[0.1 mol/(mol Ferrihydrite)]
	                                   Mole                     Log
	Species               Moles    Fraction    Molality    Molality

	Hfo_sOZn+        1.788e-014       0.488  1.788e-014     -13.748
	Hfo_sOHSO4-2     5.945e-015       0.162  5.945e-015     -14.226
	Hfo_sOCu+        5.556e-015       0.152  5.556e-015     -14.255
	Hfo_sO-          4.240e-015       0.116  4.240e-015     -14.373
	Hfo_sOH          2.556e-015       0.070  2.556e-015     -14.592
	Hfo_sOHCa+2      4.173e-016       0.011  4.173e-016     -15.380
	Hfo_sSO4-        4.117e-017       0.001  4.117e-017     -16.385
	Hfo_sOH2+        3.530e-017       0.001  3.530e-017     -16.452
	Hfo_sPO4-2       5.890e-020       0.000  5.890e-020     -19.230
	Hfo_sHPO4-       1.951e-021       0.000  1.951e-021     -20.710
	Hfo_sH2PO4       1.098e-024       0.000  1.098e-024     -23.959

Hfo_w         
	 3.667e-016  moles	[0.001 mol/(mol Ferrihydrite)]
	                                   Mole                     Log
	Species               Moles    Fraction    Molality    Molality

	Hfo_wOHSO4-2     1.693e-016       0.462  1.693e-016     -15.771
	Hfo_wO-          1.207e-016       0.329  1.207e-016     -15.918
	Hfo_wOH          7.278e-017       0.198  7.278e-017     -16.138
	Hfo_wSO4-        1.172e-018       0.003  1.172e-018     -17.931
	Hfo_wOH2+        1.005e-018       0.003  1.005e-018     -17.998
	Hfo_wOCu+        8.897e-019       0.002  8.897e-019     -18.051
	Hfo_wOZn+        5.582e-019       0.002  5.582e-019     -18.253
	Hfo_wOCa+        2.539e-019       0.001  2.539e-019     -18.595
	Hfo_wPO4-2       1.677e-021       0.000  1.677e-021     -20.775
	Hfo_wHPO4-       5.557e-023       0.000  5.557e-023     -22.255
	Hfo_wH2PO4       3.126e-026       0.000  3.126e-026     -25.505

-----------------------------Solution composition------------------------------

	Elements           Molality       Moles

	Al               1.924e-007  1.924e-007
	C                2.220e-003  2.220e-003
	Ca               7.966e-004  7.966e-004
	Cl               8.925e-003  8.925e-003
	Cu               1.141e-007  1.141e-007
	F                8.513e-007  8.513e-007
	Fe               6.092e-009  6.092e-009
	K                2.564e-004  2.564e-004
	Mg               1.268e-003  1.268e-003
	Mn               2.547e-011  2.547e-011
	Na               1.400e-002  1.400e-002
	P                1.240e-012  1.240e-012
	S                3.600e-003  3.600e-003
	Si               2.516e-004  2.516e-004
	Zn               5.721e-007  5.721e-007

----------------------------Description of solution----------------------------

                                       pH  =   7.982      Charge balance
                                       pe  =   8.146      Adjusted to redox equilibrium
                        Activity of water  =   0.999
                           Ionic strength  =  2.237e-002
                       Mass of water (kg)  =  1.000e+000
                 Total alkalinity (eq/kg)  =  2.210e-003
                       Total CO2 (mol/kg)  =  2.220e-003
                      Temperature (deg C)  =  26.974
                  Electrical balance (eq)  =  5.134e-005
 Percent error, 100*(Cat-|An|)/(Cat+|An|)  =   0.15
                               Iterations  =  16
                                  Total H  = 1.110157e+002
                                  Total O  = 5.552829e+001

	Solution 176
	redox     O(-2)/O(0)
	units     mg/kgw
	water    1 # kg
	TEMP 26.9757270813
	DENSITY 998.427307129
	Al 0.00511839054525
	Ca 32.2042808533
	Cl 316.524383545
	Cu 0.00723788933828
	C 136.370532684
	F 0.0161790382117
	Fe 0.000340108235832
	K 10.0257530212
	Mg 30.8519287109
	Mn 1.46354830122e-006
	Na 321.857208252
	N 0.0
	P 3.662450343e-009
	Pb 0.0
	Si 24.1922721863
	S 345.917816162
	Zn 0.0374308638275
	pH 7.97599935532
	O(0) 1.00000001335e-010
	EQUILIBRIUM_PHASES 1
	    Calcite		 0		 0
	    Ferrihydrite		 0		 0
	    Gypsum		 0		 0
	    Gypsum		 0		 0
	    Manganite		 0		 0
	    Jarosite-Na		 0		 0
	    Jarosite-K		 0		 0
	    Alunite		 0		 0
	    Halloysite		 0		 0
	    Malachite		 0		 0
	SURFACE 1
	    equilibrate with solution 176
	    Hfo_sOH Ferrihydrite    equilibrium_phase 0.1    64122.6
	    Hfo_wOH Ferrihydrite    equilibrium_phase 0.001
	END
----------------------------------User print-----------------------------------

   O(0)               6.2500e-015     6.2500e-015 

-----------------------------Solution composition------------------------------

	Elements           Molality       Moles

	Al               1.897e-007  1.897e-007
	C                2.235e-003  2.235e-003
	Ca               8.035e-004  8.035e-004
	Cl               8.928e-003  8.928e-003
	Cu               1.139e-007  1.139e-007
	F                8.516e-007  8.516e-007
	Fe               6.090e-009  6.090e-009
	K                2.564e-004  2.564e-004
	Mg               1.269e-003  1.269e-003
	Mn               2.664e-011  2.664e-011
	Na               1.400e-002  1.400e-002
	O(0)             6.250e-015  6.250e-015
	P                1.182e-013  1.182e-013
	S                3.601e-003  3.601e-003
	Si               2.517e-004  2.517e-004
	Zn               5.726e-007  5.726e-007

----------------------------Description of solution----------------------------

                                       pH  =   7.976    
                                       pe  =   4.000    
                        Activity of water  =   0.999
                           Ionic strength  =  2.239e-002
                       Mass of water (kg)  =  1.000e+000
                 Total alkalinity (eq/kg)  =  2.224e-003
                       Total CO2 (mol/kg)  =  2.235e-003
                      Temperature (deg C)  =  26.976
                  Electrical balance (eq)  =  4.826e-005
 Percent error, 100*(Cat-|An|)/(Cat+|An|)  =   0.14
                               Iterations  =  12
                                  Total H  = 1.110157e+002
                                  Total O  = 5.552833e+001

Hfo           
	-3.097e-030  Surface charge, eq
	undefined  sigma, C/m**2
	 6.954e-002  psi, V
	-2.689e+000  -F*psi/RT
	 6.796e-002  exp(-F*psi/RT)
	 6.412e+004  specific area, m**2/mol Ferrihydrite
	 0.000e+000  m**2 for  0.000e+000 moles of Ferrihydrite


Hfo_s         
	 0.000e+000  moles	[0.1 mol/(mol Ferrihydrite)]
	                                   Mole                     Log
	Species               Moles    Fraction    Molality    Molality

	Hfo_sOZn+        6.937e-030       0.000  6.937e-030     -29.159
	Hfo_sOHSO4-2     2.325e-030       0.000  2.325e-030     -29.634
	Hfo_sOCu+        2.191e-030       0.000  2.191e-030     -29.659
	Hfo_sO-          1.636e-030       0.000  1.636e-030     -29.786
	Hfo_sOH          1.000e-030       0.000  1.000e-030     -30.000
	Hfo_sOHCa+2      1.647e-031       0.000  1.647e-031     -30.783
	Hfo_sSO4-        1.633e-032       0.000  1.633e-032     -31.787
	Hfo_sOH2+        1.400e-032       0.000  1.400e-032     -31.854
	Hfo_sPO4-2       2.195e-036       0.000  2.195e-036     -35.659
	Hfo_sHPO4-       7.373e-038       0.000  7.373e-038     -37.132
	Hfo_sH2PO4       4.206e-041       0.000  4.206e-041     -40.376

Hfo_w         
	 0.000e+000  moles	[0.001 mol/(mol Ferrihydrite)]
	                                   Mole                     Log
	Species               Moles    Fraction    Molality    Molality

	Hfo_wOHSO4-2     2.325e-030       0.000  2.325e-030     -29.634
	Hfo_wO-          1.636e-030       0.000  1.636e-030     -29.786
	Hfo_wOH          1.000e-030       0.000  1.000e-030     -30.000
	Hfo_wSO4-        1.633e-032       0.000  1.633e-032     -31.787
	Hfo_wOH2+        1.400e-032       0.000  1.400e-032     -31.854
	Hfo_wOCu+        1.232e-032       0.000  1.232e-032     -31.909
	Hfo_wOZn+        7.607e-033       0.000  7.607e-033     -32.119
	Hfo_wOCa+        3.471e-033       0.000  3.471e-033     -32.460
	Hfo_wPO4-2       2.195e-036       0.000  2.195e-036     -35.659
	Hfo_wHPO4-       7.373e-038       0.000  7.373e-038     -37.132
	Hfo_wH2PO4       4.206e-041       0.000  4.206e-041     -40.376

----------------------------------User print-----------------------------------

   O(0)               2.0010e-013     2.0010e-013 

-------------------------------Phase assemblage--------------------------------

                                                      Moles in assemblage
Phase                  SI log IAP  log KT      Initial       Final       Delta

Alunite             -7.77   -9.10   -1.33   0.000e+000           0  0.000e+000
Calcite              0.00   -8.49   -8.49   0.000e+000  7.197e-008  7.197e-008
Ferrihydrite         0.00    4.89    4.89   0.000e+000  8.265e-014  8.265e-014
Gypsum              -1.57   -6.18   -4.61   0.000e+000           0  0.000e+000
Gypsum              -1.57   -6.18   -4.61   0.000e+000           0  0.000e+000
Halloysite           0.00    8.80    8.80   0.000e+000  5.897e-012  5.897e-012
Jarosite-K          -3.48  -18.43  -14.95   0.000e+000           0  0.000e+000
Jarosite-Na         -5.32  -16.69  -11.37   0.000e+000           0  0.000e+000
Malachite           -2.50   -7.75   -5.26   0.000e+000           0  0.000e+000
Manganite           -2.24   -2.47   -0.24   0.000e+000           0  0.000e+000

------------------------------Surface composition------------------------------

Hfo           
	 1.731e-015  Surface charge, eq
	 3.151e-002  sigma, C/m**2
	 6.954e-002  psi, V
	-2.689e+000  -F*psi/RT
	 6.796e-002  exp(-F*psi/RT)
	 6.412e+004  specific area, m**2/mol Ferrihydrite
	 5.300e-009  m**2 for  8.265e-014 moles of Ferrihydrite


Hfo_s         
	 8.265e-015  moles	[0.1 mol/(mol Ferrihydrite)]
	                                   Mole                     Log
	Species               Moles    Fraction    Molality    Molality

	Hfo_sOZn+        4.012e-015       0.485  4.012e-015     -14.397
	Hfo_sOHSO4-2     1.345e-015       0.163  1.345e-015     -14.871
	Hfo_sOCu+        1.268e-015       0.153  1.268e-015     -14.897
	Hfo_sO-          9.454e-016       0.114  9.454e-016     -15.024
	Hfo_sOH          5.785e-016       0.070  5.785e-016     -15.238
	Hfo_sOHCa+2      9.526e-017       0.012  9.526e-017     -16.021
	Hfo_sSO4-        9.454e-018       0.001  9.454e-018     -17.024
	Hfo_sOH2+        8.108e-018       0.001  8.108e-018     -17.091
	Hfo_sPO4-2       1.270e-021       0.000  1.270e-021     -20.896
	Hfo_sHPO4-       4.269e-023       0.000  4.269e-023     -22.370
	Hfo_sH2PO4       2.438e-026       0.000  2.438e-026     -25.613

Hfo_w         
	 8.265e-017  moles	[0.001 mol/(mol Ferrihydrite)]
	                                   Mole                     Log
	Species               Moles    Fraction    Molality    Molality

	Hfo_wOHSO4-2     3.832e-017       0.464  3.832e-017     -16.417
	Hfo_wO-          2.693e-017       0.326  2.693e-017     -16.570
	Hfo_wOH          1.648e-017       0.199  1.648e-017     -16.783
	Hfo_wSO4-        2.693e-019       0.003  2.693e-019     -18.570
	Hfo_wOH2+        2.310e-019       0.003  2.310e-019     -18.636
	Hfo_wOCu+        2.032e-019       0.002  2.032e-019     -18.692
	Hfo_wOZn+        1.253e-019       0.002  1.253e-019     -18.902
	Hfo_wOCa+        5.714e-020       0.001  5.714e-020     -19.243
	Hfo_wPO4-2       3.617e-023       0.000  3.617e-023     -22.442
	Hfo_wHPO4-       1.216e-024       0.000  1.216e-024     -23.915
	Hfo_wH2PO4       6.945e-028       0.000  6.945e-028     -27.158

-----------------------------Solution composition------------------------------

	Elements           Molality       Moles

	Al               1.897e-007  1.897e-007
	C                2.235e-003  2.235e-003
	Ca               8.034e-004  8.034e-004
	Cl               8.928e-003  8.928e-003
	Cu               1.139e-007  1.139e-007
	F                8.516e-007  8.516e-007
	Fe               6.090e-009  6.090e-009
	K                2.564e-004  2.564e-004
	Mg               1.269e-003  1.269e-003
	Mn               2.664e-011  2.664e-011
	Na               1.400e-002  1.400e-002
	P                1.182e-013  1.182e-013
	S                3.601e-003  3.601e-003
	Si               2.517e-004  2.517e-004
	Zn               5.726e-007  5.726e-007

----------------------------Description of solution----------------------------

                                       pH  =   7.976      Charge balance
                                       pe  =  10.133      Adjusted to redox equilibrium
                        Activity of water  =   0.999
                           Ionic strength  =  2.239e-002
                       Mass of water (kg)  =  1.000e+000
                 Total alkalinity (eq/kg)  =  2.224e-003
                       Total CO2 (mol/kg)  =  2.235e-003
                      Temperature (deg C)  =  26.976
                  Electrical balance (eq)  =  4.826e-005
 Percent error, 100*(Cat-|An|)/(Cat+|An|)  =   0.14
                               Iterations  =  33
                                  Total H  = 1.110157e+002
                                  Total O  = 5.552833e+001

