   Input file: fiona
  Output file: fiona.out
Database file: ../database/phreeqc.dat

------------------
Reading data base.
------------------

	SOLUTION_MASTER_SPECIES
	SOLUTION_SPECIES
	PHASES
	EXCHANGE_MASTER_SPECIES
	EXCHANGE_SPECIES
	SURFACE_MASTER_SPECIES
	SURFACE_SPECIES
	RATES
	END
------------------------------------
Reading input data for simulation 1.
------------------------------------

	DATABASE ../database/phreeqc.dat
	TITLE Doug's test problem using Np in Reference Backfill water, stepping Eh
	 SOLUTION 1  Reference Backfill water
	         units   mol/L
	         pH      12.5
	         density 1.023
	         temp    25.0
	         Ca              5.1e-2
	         Mg              5.7e-3
	         Na              3.7e-1
	         K               4.4e-3
	         Al        1.7e-6    
	         Sr   2.0e-3
	         Si              2.0e-3
	         Cl              4.2e-1
	         C   1.0e-3
	         S(6)            1.2e-2
	         Np           1.e-10
	 SOLUTION_MASTER_SPECIES
	         Np       Np+4       0.0     237.048   237.048
	         Np(4)    Np+4     0.0     237.048
	         Np(5)    NpO2+  0.0     237.048
	 SOLUTION_SPECIES
	         Np+4                = Np+4
	                 log_k          0.0
	                 delta_h       = 0
	         Np+4 + 4H2O  = Np(OH)4 + 4H+
	                 logK = -9.83
	                 delta_h = 0
	         Np+4 + 2H2O  =  NpO2+ + 4H+ + e-
	                 logK =   -10.21
	                 delta_h        0 kcal/mol
	         NpO2+  + H2O =  NpO2OH + H+
	                 logK = -11.3
	                 delta_h = 0 kcal/mol
	         NpO2+ + 2H2O  =  NpO2(OH)2- + 2H+
	                 logK = -23.60
	                 delta_h = 0 kcal/mol
	 PHASES
	         Neptunium(IV)hydroxide
	         Np(OH)4 + 4H+  =  Np+4 + 4H2O
	                 log_k          0.74
	                 delta_h        0 kcal/mol
	         Neptunium(IV)oxide
	         NpO2 + 4H+ = Np+4 + 2H2O
	                 log_k          -2.68
	                 delta_h        0 kcal/mol
	         Neptunium(IV)oxide(am)
	         NpO2 + 4H+ = Np+4 + 2H2O
	                 log_k          1.53
	                 delta_h        0 kcal/mol
	             Fix_pe
	             e- = e-
	             log_k  0
	 END
-----
TITLE
-----

 Doug's test problem using Np in Reference Backfill water, stepping Eh

-------------------------------------------
Beginning of initial solution calculations.
-------------------------------------------

Initial solution 1.	Reference Backfill water

-----------------------------Solution composition------------------------------

	Elements           Molality       Moles

	Al               1.707e-006  1.707e-006
	C                1.004e-003  1.004e-003
	Ca               5.122e-002  5.122e-002
	Cl               4.218e-001  4.218e-001
	K                4.419e-003  4.419e-003
	Mg               5.724e-003  5.724e-003
	Na               3.716e-001  3.716e-001
	Np               1.004e-010  1.004e-010
	S(6)             1.205e-002  1.205e-002
	Si               2.009e-003  2.009e-003
	Sr               2.009e-003  2.009e-003

----------------------------Description of solution----------------------------

                                       pH  =  12.500    
                                       pe  =   4.000    
       Specific Conductance (uS/cm, 25 oC) = 48192
                          Density (g/cm3)  =   1.01714
                        Activity of water  =   0.984
                           Ionic strength  =  5.305e-001
                       Mass of water (kg)  =  1.000e+000
                 Total alkalinity (eq/kg)  =  7.115e-002
                       Total CO2 (mol/kg)  =  1.004e-003
                      Temperature (deg C)  =  25.000
                  Electrical balance (eq)  = -2.314e-002
 Percent error, 100*(Cat-|An|)/(Cat+|An|)  =  -2.41
                               Iterations  =   4
                                  Total H  = 1.110842e+002
                                  Total O  = 5.563190e+001

----------------------------Distribution of species----------------------------

                                                   Log       Log         Log 
   Species                 Molality    Activity  Molality  Activity     Gamma

   OH-                   4.961e-002  3.116e-002    -1.304    -1.506    -0.202
   H+                    4.147e-013  3.162e-013   -12.382   -12.500    -0.118
   H2O                   5.551e+001  9.844e-001     1.744    -0.007     0.000
Al              1.707e-006
   Al(OH)4-              1.707e-006  1.255e-006    -5.768    -5.901    -0.134
   Al(OH)3               1.893e-013  2.139e-013   -12.723   -12.670     0.053
   Al(OH)2+              6.344e-019  4.664e-019   -18.198   -18.331    -0.134
   AlOH+2                6.542e-026  1.912e-026   -25.184   -25.719    -0.534
   Al+3                  7.084e-033  6.182e-034   -32.150   -33.209    -1.059
   AlSO4+                3.659e-033  2.690e-033   -32.437   -32.570    -0.134
   Al(SO4)2-             1.592e-034  1.170e-034   -33.798   -33.932    -0.134
   AlHSO4+2              0.000e+000  0.000e+000   -45.588   -46.122    -0.534
C(-4)           0.000e+000
   CH4                   0.000e+000  0.000e+000  -120.393  -120.340     0.053
C(4)            1.004e-003
   CaCO3                 5.784e-004  6.536e-004    -3.238    -3.185     0.053
   NaCO3-                2.420e-004  1.779e-004    -3.616    -3.750    -0.134
   CO3-2                 1.645e-004  3.704e-005    -3.784    -4.431    -0.648
   SrCO3                 9.527e-006  1.077e-005    -5.021    -4.968     0.053
   MgCO3                 9.367e-006  1.058e-005    -5.028    -4.975     0.053
   HCO3-                 3.626e-007  2.497e-007    -6.441    -6.603    -0.162
   CaHCO3+               4.859e-008  3.347e-008    -7.313    -7.475    -0.162
   NaHCO3                3.206e-008  3.623e-008    -7.494    -7.441     0.053
   SrHCO3+               2.525e-009  1.739e-009    -8.598    -8.760    -0.162
   MgHCO3+               1.190e-009  8.751e-010    -8.924    -9.058    -0.134
   CO2                   1.596e-013  1.804e-013   -12.797   -12.744     0.053
Ca              5.122e-002
   Ca+2                  4.071e-002  1.050e-002    -1.390    -1.979    -0.588
   CaOH+                 7.381e-003  5.427e-003    -2.132    -2.265    -0.134
   CaSO4                 2.552e-003  2.884e-003    -2.593    -2.540     0.053
   CaCO3                 5.784e-004  6.536e-004    -3.238    -3.185     0.053
   CaHCO3+               4.859e-008  3.347e-008    -7.313    -7.475    -0.162
   CaHSO4+               7.267e-015  5.343e-015   -14.139   -14.272    -0.134
Cl              4.218e-001
   Cl-                   4.218e-001  2.698e-001    -0.375    -0.569    -0.194
H(0)            1.253e-036
   H2                    6.265e-037  7.079e-037   -36.203   -36.150     0.053
K               4.419e-003
   K+                    4.356e-003  2.787e-003    -2.361    -2.555    -0.194
   KSO4-                 3.664e-005  2.694e-005    -4.436    -4.570    -0.134
   KOH                   2.662e-005  3.008e-005    -4.575    -4.522     0.053
Mg              5.724e-003
   MgOH+                 4.604e-003  3.385e-003    -2.337    -2.470    -0.134
   Mg+2                  1.026e-003  2.995e-004    -2.989    -3.524    -0.535
   MgSO4                 8.549e-005  9.659e-005    -4.068    -4.015     0.053
   MgCO3                 9.367e-006  1.058e-005    -5.028    -4.975     0.053
   MgHCO3+               1.190e-009  8.751e-010    -8.924    -9.058    -0.134
Na              3.716e-001
   Na+                   3.642e-001  2.580e-001    -0.439    -0.588    -0.150
   NaOH                  4.696e-003  5.306e-003    -2.328    -2.275     0.053
   NaSO4-                2.420e-003  1.779e-003    -2.616    -2.750    -0.134
   NaCO3-                2.420e-004  1.779e-004    -3.616    -3.750    -0.134
   NaHCO3                3.206e-008  3.623e-008    -7.494    -7.441     0.053
Np(4)           4.280e-016
   Np(OH)4               4.280e-016  4.836e-016   -15.369   -15.316     0.053
   Np+4                  0.000e+000  0.000e+000   -53.321   -55.458    -2.137
Np(5)           1.004e-010
   NpO2(OH)2-            6.887e-011  5.064e-011   -10.162   -10.296    -0.134
   NpO2OH                2.872e-011  3.246e-011   -10.542   -10.489     0.053
   NpO2+                 2.829e-012  2.080e-012   -11.548   -11.682    -0.134
O(0)            1.427e-020
   O2                    7.134e-021  8.061e-021   -20.147   -20.094     0.053
S(6)            1.205e-002
   SO4-2                 6.849e-003  1.376e-003    -2.164    -2.861    -0.697
   CaSO4                 2.552e-003  2.884e-003    -2.593    -2.540     0.053
   NaSO4-                2.420e-003  1.779e-003    -2.616    -2.750    -0.134
   SrSO4                 1.081e-004  1.222e-004    -3.966    -3.913     0.053
   MgSO4                 8.549e-005  9.659e-005    -4.068    -4.015     0.053
   KSO4-                 3.664e-005  2.694e-005    -4.436    -4.570    -0.134
   HSO4-                 5.754e-014  4.230e-014   -13.240   -13.374    -0.134
   CaHSO4+               7.267e-015  5.343e-015   -14.139   -14.272    -0.134
   AlSO4+                3.659e-033  2.690e-033   -32.437   -32.570    -0.134
   Al(SO4)2-             1.592e-034  1.170e-034   -33.798   -33.932    -0.134
   AlHSO4+2              0.000e+000  0.000e+000   -45.588   -46.122    -0.534
Si              2.009e-003
   H3SiO4-               1.302e-003  9.573e-004    -2.885    -3.019    -0.134
   H2SiO4-2              7.047e-004  2.059e-004    -3.152    -3.686    -0.534
   H4SiO4                1.817e-006  2.053e-006    -5.741    -5.688     0.053
Sr              2.009e-003
   Sr+2                  1.784e-003  4.553e-004    -2.749    -3.342    -0.593
   SrSO4                 1.081e-004  1.222e-004    -3.966    -3.913     0.053
   SrOH+                 1.073e-004  7.269e-005    -3.970    -4.139    -0.169
   SrCO3                 9.527e-006  1.077e-005    -5.021    -4.968     0.053
   SrHCO3+               2.525e-009  1.739e-009    -8.598    -8.760    -0.162

------------------------------Saturation indices-------------------------------

	Phase               SI log IAP  log KT

	Al(OH)3(a)       -6.53    4.27   10.80  Al(OH)3
	Albite           -5.50  -23.50  -18.00  NaAlSi3O8
	Alunite         -31.55  -32.95   -1.40  KAl3(SO4)2(OH)6
	Anhydrite        -0.48   -4.84   -4.36  CaSO4
	Anorthite        -5.39  -25.10  -19.71  CaAl2Si2O8
	Aragonite         1.93   -6.41   -8.34  CaCO3
	Ca-Montmorillonite -14.84  -59.87  -45.03  Ca0.165Al2.33Si3.67O10(OH)2
	Calcite           2.07   -6.41   -8.48  CaCO3
	Celestite         0.43   -6.20   -6.63  SrSO4
	CH4(g)         -117.48 -120.34   -2.86  CH4
	Chalcedony       -2.12   -5.67   -3.55  SiO2
	Chlorite(14A)    30.48   98.86   68.38  Mg5Al2Si3O10(OH)8
	Chrysotile       20.85   53.05   32.20  Mg3Si2O5(OH)4
	CO2(g)          -11.28  -12.74   -1.47  CO2
	Dolomite          2.72  -14.37  -17.09  CaMg(CO3)2
	Fix_pe           -4.00   -4.00    0.00  e-
	Gibbsite         -3.84    4.27    8.11  Al(OH)3
	Gypsum           -0.27   -4.85   -4.58  CaSO4:2H2O
	H2(g)           -33.00  -36.15   -3.15  H2
	H2O(g)           -1.52   -0.01    1.51  H2O
	Halite           -2.74   -1.16    1.58  NaCl
	Illite          -10.55  -50.82  -40.27  K0.6Mg0.25Al2.3Si3.5O10(OH)2
	K-feldspar       -4.89  -25.46  -20.57  KAlSi3O8
	K-mica           -6.95    5.76   12.70  KAl3Si3O10(OH)2
	Kaolinite       -10.23   -2.80    7.43  Al2Si2O5(OH)4
	Neptunium(IV)hydroxide  -6.23   -5.49    0.74  Np(OH)4
	Neptunium(IV)oxide  -2.79   -5.47   -2.68  NpO2
	Neptunium(IV)oxide(am)  -7.00   -5.47    1.53  NpO2
	O2(g)           -17.20  -20.09   -2.89  O2
	Quartz           -1.69   -5.67   -3.98  SiO2
	Sepiolite        10.13   25.89   15.76  Mg2Si3O7.5OH:3H2O
	Sepiolite(d)      7.23   25.89   18.66  Mg2Si3O7.5OH:3H2O
	SiO2(a)          -2.96   -5.67   -2.71  SiO2
	Strontianite      1.50   -7.77   -9.27  SrCO3
	Talc             20.31   41.71   21.40  Mg3Si4O10(OH)2

------------------
End of simulation.
------------------

------------------------------------
Reading input data for simulation 2.
------------------------------------

	USER_GRAPH
	-headings pe Np  Np(OH)4 NpO2OH NpO2(OH)2- NpO2+    
	-axis_titles Eh Np(moldm-3)   #These are for the graph axes
	-start
	10 graph_x  -la("e-")*2.303*8.31451*298/9.6485E4
	20 graph_y  tot("Np"),MOL("Np(OH)4"), MOL("NpO2OH"), MOL("NpO2(OH)2-"), MOL("NpO2+")    
	-end
	END
------------------
End of simulation.
------------------

------------------------------------
Reading input data for simulation 3.
------------------------------------

	USE solution 1
	EQUILIBRIUM_PHASES 1
	Fix_pe 7  O2(g) 1
	END
-----------------------------------------
Beginning of batch-reaction calculations.
-----------------------------------------

Reaction step 1.

Using solution 1.	Reference Backfill water
Using pure phase assemblage 1.	

-------------------------------Phase assemblage--------------------------------

                                                      Moles in assemblage
Phase                  SI log IAP  log KT      Initial       Final       Delta

Fix_pe               7.00    7.00    0.00
	 O2                 is reactant     1.000e+000  1.000e+000  2.511e-011

-----------------------------Solution composition------------------------------

	Elements           Molality       Moles

	Al               1.707e-006  1.707e-006
	C                1.004e-003  1.004e-003
	Ca               5.122e-002  5.122e-002
	Cl               4.218e-001  4.218e-001
	K                4.419e-003  4.419e-003
	Mg               5.724e-003  5.724e-003
	Na               3.716e-001  3.716e-001
	Np               1.004e-010  1.004e-010
	S                1.205e-002  1.205e-002
	Si               2.009e-003  2.009e-003
	Sr               2.009e-003  2.009e-003

----------------------------Description of solution----------------------------

                                       pH  =  12.500      Charge balance
                                       pe  =  -7.000      Adjusted to redox equilibrium
       Specific Conductance (uS/cm, 25 oC) = 48192
                          Density (g/cm3)  =   1.01714
                        Activity of water  =   0.984
                           Ionic strength  =  5.305e-001
                       Mass of water (kg)  =  1.000e+000
                 Total alkalinity (eq/kg)  =  7.115e-002
                       Total CO2 (mol/kg)  =  1.004e-003
                      Temperature (deg C)  =  25.000
                  Electrical balance (eq)  = -2.314e-002
 Percent error, 100*(Cat-|An|)/(Cat+|An|)  =  -2.41
                               Iterations  =  14
                                  Total H  = 1.110842e+002
                                  Total O  = 5.563190e+001

----------------------------Distribution of species----------------------------

                                                   Log       Log         Log 
   Species                 Molality    Activity  Molality  Activity     Gamma

   OH-                   4.961e-002  3.116e-002    -1.304    -1.506    -0.202
   H+                    4.147e-013  3.162e-013   -12.382   -12.500    -0.118
   H2O                   5.551e+001  9.844e-001     1.744    -0.007     0.000
Al              1.707e-006
   Al(OH)4-              1.707e-006  1.255e-006    -5.768    -5.901    -0.134
   Al(OH)3               1.893e-013  2.139e-013   -12.723   -12.670     0.053
   Al(OH)2+              6.344e-019  4.664e-019   -18.198   -18.331    -0.134
   AlOH+2                6.542e-026  1.912e-026   -25.184   -25.719    -0.534
   Al+3                  7.084e-033  6.182e-034   -32.150   -33.209    -1.059
   AlSO4+                3.659e-033  2.690e-033   -32.437   -32.570    -0.134
   Al(SO4)2-             1.592e-034  1.170e-034   -33.798   -33.932    -0.134
   AlHSO4+2              0.000e+000  0.000e+000   -45.588   -46.122    -0.534
C(-4)           4.046e-033
   CH4                   4.046e-033  4.572e-033   -32.393   -32.340     0.053
C(4)            1.004e-003
   CaCO3                 5.784e-004  6.536e-004    -3.238    -3.185     0.053
   NaCO3-                2.420e-004  1.779e-004    -3.616    -3.750    -0.134
   CO3-2                 1.645e-004  3.704e-005    -3.784    -4.431    -0.648
   SrCO3                 9.527e-006  1.077e-005    -5.021    -4.968     0.053
   MgCO3                 9.367e-006  1.058e-005    -5.028    -4.975     0.053
   HCO3-                 3.626e-007  2.497e-007    -6.441    -6.603    -0.162
   CaHCO3+               4.859e-008  3.347e-008    -7.313    -7.475    -0.162
   NaHCO3                3.206e-008  3.623e-008    -7.494    -7.441     0.053
   SrHCO3+               2.525e-009  1.739e-009    -8.598    -8.760    -0.162
   MgHCO3+               1.190e-009  8.751e-010    -8.924    -9.058    -0.134
   CO2                   1.596e-013  1.804e-013   -12.797   -12.744     0.053
Ca              5.122e-002
   Ca+2                  4.071e-002  1.050e-002    -1.390    -1.979    -0.588
   CaOH+                 7.381e-003  5.427e-003    -2.132    -2.265    -0.134
   CaSO4                 2.552e-003  2.884e-003    -2.593    -2.540     0.053
   CaCO3                 5.784e-004  6.536e-004    -3.238    -3.185     0.053
   CaHCO3+               4.859e-008  3.347e-008    -7.313    -7.475    -0.162
   CaHSO4+               7.267e-015  5.343e-015   -14.139   -14.272    -0.134
Cl              4.218e-001
   Cl-                   4.218e-001  2.698e-001    -0.375    -0.569    -0.194
H(0)            1.253e-014
   H2                    6.265e-015  7.079e-015   -14.203   -14.150     0.053
K               4.419e-003
   K+                    4.356e-003  2.787e-003    -2.361    -2.555    -0.194
   KSO4-                 3.664e-005  2.694e-005    -4.436    -4.570    -0.134
   KOH                   2.662e-005  3.008e-005    -4.575    -4.522     0.053
Mg              5.724e-003
   MgOH+                 4.604e-003  3.385e-003    -2.337    -2.470    -0.134
   Mg+2                  1.026e-003  2.995e-004    -2.989    -3.524    -0.535
   MgSO4                 8.549e-005  9.659e-005    -4.068    -4.015     0.053
   MgCO3                 9.367e-006  1.058e-005    -5.028    -4.975     0.053
   MgHCO3+               1.190e-009  8.751e-010    -8.924    -9.058    -0.134
Na              3.716e-001
   Na+                   3.642e-001  2.580e-001    -0.439    -0.588    -0.150
   NaOH                  4.696e-003  5.306e-003    -2.328    -2.275     0.053
   NaSO4-                2.420e-003  1.779e-003    -2.616    -2.750    -0.134
   NaCO3-                2.420e-004  1.779e-004    -3.616    -3.750    -0.134
   NaHCO3                3.206e-008  3.623e-008    -7.494    -7.441     0.053
Np(4)           1.004e-010
   Np(OH)4               1.004e-010  1.135e-010    -9.998    -9.945     0.053
   Np+4                  0.000e+000  0.000e+000   -47.951   -50.088    -2.137
Np(5)           2.357e-016
   NpO2(OH)2-            1.616e-016  1.188e-016   -15.792   -15.925    -0.134
   NpO2OH                6.740e-017  7.616e-017   -16.171   -16.118     0.053
   NpO2+                 6.639e-018  4.881e-018   -17.178   -17.311    -0.134
O(0)            0.000e+000
   O2                    0.000e+000  0.000e+000   -64.147   -64.094     0.053
S(-2)           7.041e-026
   S-2                   3.747e-026  7.904e-027   -25.426   -26.102    -0.676
   HS-                   3.295e-026  2.069e-026   -25.482   -25.684    -0.202
   H2S                   5.064e-032  5.722e-032   -31.296   -31.242     0.053
S(6)            1.205e-002
   SO4-2                 6.849e-003  1.376e-003    -2.164    -2.861    -0.697
   CaSO4                 2.552e-003  2.884e-003    -2.593    -2.540     0.053
   NaSO4-                2.420e-003  1.779e-003    -2.616    -2.750    -0.134
   SrSO4                 1.081e-004  1.222e-004    -3.966    -3.913     0.053
   MgSO4                 8.549e-005  9.659e-005    -4.068    -4.015     0.053
   KSO4-                 3.664e-005  2.694e-005    -4.436    -4.570    -0.134
   HSO4-                 5.754e-014  4.230e-014   -13.240   -13.374    -0.134
   CaHSO4+               7.267e-015  5.343e-015   -14.139   -14.272    -0.134
   AlSO4+                3.659e-033  2.690e-033   -32.437   -32.570    -0.134
   Al(SO4)2-             1.592e-034  1.170e-034   -33.798   -33.932    -0.134
   AlHSO4+2              0.000e+000  0.000e+000   -45.588   -46.122    -0.534
Si              2.009e-003
   H3SiO4-               1.302e-003  9.573e-004    -2.885    -3.019    -0.134
   H2SiO4-2              7.047e-004  2.059e-004    -3.152    -3.686    -0.534
   H4SiO4                1.817e-006  2.053e-006    -5.741    -5.688     0.053
Sr              2.009e-003
   Sr+2                  1.784e-003  4.553e-004    -2.749    -3.342    -0.593
   SrSO4                 1.081e-004  1.222e-004    -3.966    -3.913     0.053
   SrOH+                 1.073e-004  7.269e-005    -3.970    -4.139    -0.169
   SrCO3                 9.527e-006  1.077e-005    -5.021    -4.968     0.053
   SrHCO3+               2.525e-009  1.739e-009    -8.598    -8.760    -0.162

------------------------------Saturation indices-------------------------------

	Phase               SI log IAP  log KT

	Al(OH)3(a)       -6.53    4.27   10.80  Al(OH)3
	Albite           -5.50  -23.50  -18.00  NaAlSi3O8
	Alunite         -31.55  -32.95   -1.40  KAl3(SO4)2(OH)6
	Anhydrite        -0.48   -4.84   -4.36  CaSO4
	Anorthite        -5.39  -25.10  -19.71  CaAl2Si2O8
	Aragonite         1.93   -6.41   -8.34  CaCO3
	Ca-Montmorillonite -14.84  -59.87  -45.03  Ca0.165Al2.33Si3.67O10(OH)2
	Calcite           2.07   -6.41   -8.48  CaCO3
	Celestite         0.43   -6.20   -6.63  SrSO4
	CH4(g)          -29.48  -32.34   -2.86  CH4
	Chalcedony       -2.12   -5.67   -3.55  SiO2
	Chlorite(14A)    30.48   98.86   68.38  Mg5Al2Si3O10(OH)8
	Chrysotile       20.85   53.05   32.20  Mg3Si2O5(OH)4
	CO2(g)          -11.28  -12.74   -1.47  CO2
	Dolomite          2.72  -14.37  -17.09  CaMg(CO3)2
	Fix_pe            7.00    7.00    0.00  e-
	Gibbsite         -3.84    4.27    8.11  Al(OH)3
	Gypsum           -0.27   -4.85   -4.58  CaSO4:2H2O
	H2(g)           -11.00  -14.15   -3.15  H2
	H2O(g)           -1.52   -0.01    1.51  H2O
	H2S(g)          -30.25  -31.24   -1.00  H2S
	Halite           -2.74   -1.16    1.58  NaCl
	Illite          -10.55  -50.82  -40.27  K0.6Mg0.25Al2.3Si3.5O10(OH)2
	K-feldspar       -4.89  -25.46  -20.57  KAlSi3O8
	K-mica           -6.95    5.76   12.70  KAl3Si3O10(OH)2
	Kaolinite       -10.23   -2.80    7.43  Al2Si2O5(OH)4
	Neptunium(IV)hydroxide  -0.86   -0.12    0.74  Np(OH)4
	Neptunium(IV)oxide   2.58   -0.10   -2.68  NpO2
	Neptunium(IV)oxide(am)  -1.63   -0.10    1.53  NpO2
	O2(g)           -61.20  -64.09   -2.89  O2
	Quartz           -1.69   -5.67   -3.98  SiO2
	Sepiolite        10.13   25.89   15.76  Mg2Si3O7.5OH:3H2O
	Sepiolite(d)      7.23   25.89   18.66  Mg2Si3O7.5OH:3H2O
	SiO2(a)          -2.96   -5.67   -2.71  SiO2
	Strontianite      1.50   -7.77   -9.27  SrCO3
	Sulfur          -25.12  -20.24    4.88  S
	Talc             20.31   41.71   21.40  Mg3Si4O10(OH)2

------------------
End of simulation.
------------------

------------------------------------
Reading input data for simulation 4.
------------------------------------

	USE solution 1
	EQUILIBRIUM_PHASES 1
	Fix_pe 6  O2(g)
	END
-----------------------------------------
Beginning of batch-reaction calculations.
-----------------------------------------

Reaction step 1.

Using solution 1.	Reference Backfill water
Using pure phase assemblage 1.	

-------------------------------Phase assemblage--------------------------------

                                                      Moles in assemblage
Phase                  SI log IAP  log KT      Initial       Final       Delta

Fix_pe               6.00    6.00    0.00
	 O2                 is reactant     1.000e+001  1.000e+001  2.511e-011

-----------------------------Solution composition------------------------------

	Elements           Molality       Moles

	Al               1.707e-006  1.707e-006
	C                1.004e-003  1.004e-003
	Ca               5.122e-002  5.122e-002
	Cl               4.218e-001  4.218e-001
	K                4.419e-003  4.419e-003
	Mg               5.724e-003  5.724e-003
	Na               3.716e-001  3.716e-001
	Np               1.004e-010  1.004e-010
	S                1.205e-002  1.205e-002
	Si               2.009e-003  2.009e-003
	Sr               2.009e-003  2.009e-003

----------------------------Description of solution----------------------------

                                       pH  =  12.500      Charge balance
                                       pe  =  -6.000      Adjusted to redox equilibrium
       Specific Conductance (uS/cm, 25 oC) = 48192
                          Density (g/cm3)  =   1.01714
                        Activity of water  =   0.984
                           Ionic strength  =  5.305e-001
                       Mass of water (kg)  =  1.000e+000
                 Total alkalinity (eq/kg)  =  7.115e-002
                       Total CO2 (mol/kg)  =  1.004e-003
                      Temperature (deg C)  =  25.000
                  Electrical balance (eq)  = -2.314e-002
 Percent error, 100*(Cat-|An|)/(Cat+|An|)  =  -2.41
                               Iterations  =  13
                                  Total H  = 1.110842e+002
                                  Total O  = 5.563190e+001

----------------------------Distribution of species----------------------------

                                                   Log       Log         Log 
   Species                 Molality    Activity  Molality  Activity     Gamma

   OH-                   4.961e-002  3.116e-002    -1.304    -1.506    -0.202
   H+                    4.147e-013  3.162e-013   -12.382   -12.500    -0.118
   H2O                   5.551e+001  9.844e-001     1.744    -0.007     0.000
Al              1.707e-006
   Al(OH)4-              1.707e-006  1.255e-006    -5.768    -5.901    -0.134
   Al(OH)3               1.893e-013  2.139e-013   -12.723   -12.670     0.053
   Al(OH)2+              6.344e-019  4.664e-019   -18.198   -18.331    -0.134
   AlOH+2                6.542e-026  1.912e-026   -25.184   -25.719    -0.534
   Al+3                  7.084e-033  6.182e-034   -32.150   -33.209    -1.059
   AlSO4+                3.659e-033  2.690e-033   -32.437   -32.570    -0.134
   Al(SO4)2-             1.592e-034  1.170e-034   -33.798   -33.932    -0.134
   AlHSO4+2              0.000e+000  0.000e+000   -45.588   -46.122    -0.534
C(-4)           0.000e+000
   CH4                   0.000e+000  0.000e+000   -40.393   -40.340     0.053
C(4)            1.004e-003
   CaCO3                 5.784e-004  6.536e-004    -3.238    -3.185     0.053
   NaCO3-                2.420e-004  1.779e-004    -3.616    -3.750    -0.134
   CO3-2                 1.645e-004  3.704e-005    -3.784    -4.431    -0.648
   SrCO3                 9.527e-006  1.077e-005    -5.021    -4.968     0.053
   MgCO3                 9.367e-006  1.058e-005    -5.028    -4.975     0.053
   HCO3-                 3.626e-007  2.497e-007    -6.441    -6.603    -0.162
   CaHCO3+               4.859e-008  3.347e-008    -7.313    -7.475    -0.162
   NaHCO3                3.206e-008  3.623e-008    -7.494    -7.441     0.053
   SrHCO3+               2.525e-009  1.739e-009    -8.598    -8.760    -0.162
   MgHCO3+               1.190e-009  8.751e-010    -8.924    -9.058    -0.134
   CO2                   1.596e-013  1.804e-013   -12.797   -12.744     0.053
Ca              5.122e-002
   Ca+2                  4.071e-002  1.050e-002    -1.390    -1.979    -0.588
   CaOH+                 7.381e-003  5.427e-003    -2.132    -2.265    -0.134
   CaSO4                 2.552e-003  2.884e-003    -2.593    -2.540     0.053
   CaCO3                 5.784e-004  6.536e-004    -3.238    -3.185     0.053
   CaHCO3+               4.859e-008  3.347e-008    -7.313    -7.475    -0.162
   CaHSO4+               7.267e-015  5.343e-015   -14.139   -14.272    -0.134
Cl              4.218e-001
   Cl-                   4.218e-001  2.698e-001    -0.375    -0.569    -0.194
H(0)            1.253e-016
   H2                    6.265e-017  7.079e-017   -16.203   -16.150     0.053
K               4.419e-003
   K+                    4.356e-003  2.787e-003    -2.361    -2.555    -0.194
   KSO4-                 3.664e-005  2.694e-005    -4.436    -4.570    -0.134
   KOH                   2.662e-005  3.008e-005    -4.575    -4.522     0.053
Mg              5.724e-003
   MgOH+                 4.604e-003  3.385e-003    -2.337    -2.470    -0.134
   Mg+2                  1.026e-003  2.995e-004    -2.989    -3.524    -0.535
   MgSO4                 8.549e-005  9.659e-005    -4.068    -4.015     0.053
   MgCO3                 9.367e-006  1.058e-005    -5.028    -4.975     0.053
   MgHCO3+               1.190e-009  8.751e-010    -8.924    -9.058    -0.134
Na              3.716e-001
   Na+                   3.642e-001  2.580e-001    -0.439    -0.588    -0.150
   NaOH                  4.696e-003  5.306e-003    -2.328    -2.275     0.053
   NaSO4-                2.420e-003  1.779e-003    -2.616    -2.750    -0.134
   NaCO3-                2.420e-004  1.779e-004    -3.616    -3.750    -0.134
   NaHCO3                3.206e-008  3.623e-008    -7.494    -7.441     0.053
Np(4)           1.004e-010
   Np(OH)4               1.004e-010  1.135e-010    -9.998    -9.945     0.053
   Np+4                  0.000e+000  0.000e+000   -47.951   -50.088    -2.137
Np(5)           2.356e-015
   NpO2(OH)2-            1.616e-015  1.188e-015   -14.792   -14.925    -0.134
   NpO2OH                6.740e-016  7.616e-016   -15.171   -15.118     0.053
   NpO2+                 6.639e-017  4.881e-017   -16.178   -16.311    -0.134
O(0)            0.000e+000
   O2                    0.000e+000  0.000e+000   -60.147   -60.094     0.053
S(-2)           7.041e-034
   S-2                   3.747e-034  7.904e-035   -33.426   -34.102    -0.676
   HS-                   3.295e-034  2.069e-034   -33.482   -33.684    -0.202
   H2S                   5.064e-040  5.722e-040   -39.296   -39.242     0.053
S(6)            1.205e-002
   SO4-2                 6.849e-003  1.376e-003    -2.164    -2.861    -0.697
   CaSO4                 2.552e-003  2.884e-003    -2.593    -2.540     0.053
   NaSO4-                2.420e-003  1.779e-003    -2.616    -2.750    -0.134
   SrSO4                 1.081e-004  1.222e-004    -3.966    -3.913     0.053
   MgSO4                 8.549e-005  9.659e-005    -4.068    -4.015     0.053
   KSO4-                 3.664e-005  2.694e-005    -4.436    -4.570    -0.134
   HSO4-                 5.754e-014  4.230e-014   -13.240   -13.374    -0.134
   CaHSO4+               7.267e-015  5.343e-015   -14.139   -14.272    -0.134
   AlSO4+                3.659e-033  2.690e-033   -32.437   -32.570    -0.134
   Al(SO4)2-             1.592e-034  1.170e-034   -33.798   -33.932    -0.134
   AlHSO4+2              0.000e+000  0.000e+000   -45.588   -46.122    -0.534
Si              2.009e-003
   H3SiO4-               1.302e-003  9.573e-004    -2.885    -3.019    -0.134
   H2SiO4-2              7.047e-004  2.059e-004    -3.152    -3.686    -0.534
   H4SiO4                1.817e-006  2.053e-006    -5.741    -5.688     0.053
Sr              2.009e-003
   Sr+2                  1.784e-003  4.553e-004    -2.749    -3.342    -0.593
   SrSO4                 1.081e-004  1.222e-004    -3.966    -3.913     0.053
   SrOH+                 1.073e-004  7.269e-005    -3.970    -4.139    -0.169
   SrCO3                 9.527e-006  1.077e-005    -5.021    -4.968     0.053
   SrHCO3+               2.525e-009  1.739e-009    -8.598    -8.760    -0.162

------------------------------Saturation indices-------------------------------

	Phase               SI log IAP  log KT

	Al(OH)3(a)       -6.53    4.27   10.80  Al(OH)3
	Albite           -5.50  -23.50  -18.00  NaAlSi3O8
	Alunite         -31.55  -32.95   -1.40  KAl3(SO4)2(OH)6
	Anhydrite        -0.48   -4.84   -4.36  CaSO4
	Anorthite        -5.39  -25.10  -19.71  CaAl2Si2O8
	Aragonite         1.93   -6.41   -8.34  CaCO3
	Ca-Montmorillonite -14.84  -59.87  -45.03  Ca0.165Al2.33Si3.67O10(OH)2
	Calcite           2.07   -6.41   -8.48  CaCO3
	Celestite         0.43   -6.20   -6.63  SrSO4
	CH4(g)          -37.48  -40.34   -2.86  CH4
	Chalcedony       -2.12   -5.67   -3.55  SiO2
	Chlorite(14A)    30.48   98.86   68.38  Mg5Al2Si3O10(OH)8
	Chrysotile       20.85   53.05   32.20  Mg3Si2O5(OH)4
	CO2(g)          -11.28  -12.74   -1.47  CO2
	Dolomite          2.72  -14.37  -17.09  CaMg(CO3)2
	Fix_pe            6.00    6.00    0.00  e-
	Gibbsite         -3.84    4.27    8.11  Al(OH)3
	Gypsum           -0.27   -4.85   -4.58  CaSO4:2H2O
	H2(g)           -13.00  -16.15   -3.15  H2
	H2O(g)           -1.52   -0.01    1.51  H2O
	H2S(g)          -38.25  -39.24   -1.00  H2S
	Halite           -2.74   -1.16    1.58  NaCl
	Illite          -10.55  -50.82  -40.27  K0.6Mg0.25Al2.3Si3.5O10(OH)2
	K-feldspar       -4.89  -25.46  -20.57  KAlSi3O8
	K-mica           -6.95    5.76   12.70  KAl3Si3O10(OH)2
	Kaolinite       -10.23   -2.80    7.43  Al2Si2O5(OH)4
	Neptunium(IV)hydroxide  -0.86   -0.12    0.74  Np(OH)4
	Neptunium(IV)oxide   2.58   -0.10   -2.68  NpO2
	Neptunium(IV)oxide(am)  -1.63   -0.10    1.53  NpO2
	O2(g)           -57.20  -60.09   -2.89  O2
	Quartz           -1.69   -5.67   -3.98  SiO2
	Sepiolite        10.13   25.89   15.76  Mg2Si3O7.5OH:3H2O
	Sepiolite(d)      7.23   25.89   18.66  Mg2Si3O7.5OH:3H2O
	SiO2(a)          -2.96   -5.67   -2.71  SiO2
	Strontianite      1.50   -7.77   -9.27  SrCO3
	Sulfur          -31.12  -26.24    4.88  S
	Talc             20.31   41.71   21.40  Mg3Si4O10(OH)2

------------------
End of simulation.
------------------

------------------------------------
Reading input data for simulation 5.
------------------------------------

	USE solution 1
	EQUILIBRIUM_PHASES 1
	Fix_pe 5  O2(g)
	END
-----------------------------------------
Beginning of batch-reaction calculations.
-----------------------------------------

Reaction step 1.

Using solution 1.	Reference Backfill water
Using pure phase assemblage 1.	

-------------------------------Phase assemblage--------------------------------

                                                      Moles in assemblage
Phase                  SI log IAP  log KT      Initial       Final       Delta

Fix_pe               5.00    5.00    0.00
	 O2                 is reactant     1.000e+001  1.000e+001  2.511e-011

-----------------------------Solution composition------------------------------

	Elements           Molality       Moles

	Al               1.707e-006  1.707e-006
	C                1.004e-003  1.004e-003
	Ca               5.122e-002  5.122e-002
	Cl               4.218e-001  4.218e-001
	K                4.419e-003  4.419e-003
	Mg               5.724e-003  5.724e-003
	Na               3.716e-001  3.716e-001
	Np               1.004e-010  1.004e-010
	S                1.205e-002  1.205e-002
	Si               2.009e-003  2.009e-003
	Sr               2.009e-003  2.009e-003

----------------------------Description of solution----------------------------

                                       pH  =  12.500      Charge balance
                                       pe  =  -5.000      Adjusted to redox equilibrium
       Specific Conductance (uS/cm, 25 oC) = 48192
                          Density (g/cm3)  =   1.01714
                        Activity of water  =   0.984
                           Ionic strength  =  5.305e-001
                       Mass of water (kg)  =  1.000e+000
                 Total alkalinity (eq/kg)  =  7.115e-002
                       Total CO2 (mol/kg)  =  1.004e-003
                      Temperature (deg C)  =  25.000
                  Electrical balance (eq)  = -2.314e-002
 Percent error, 100*(Cat-|An|)/(Cat+|An|)  =  -2.41
                               Iterations  =  12
                                  Total H  = 1.110842e+002
                                  Total O  = 5.563190e+001

----------------------------Distribution of species----------------------------

                                                   Log       Log         Log 
   Species                 Molality    Activity  Molality  Activity     Gamma

   OH-                   4.961e-002  3.116e-002    -1.304    -1.506    -0.202
   H+                    4.147e-013  3.162e-013   -12.382   -12.500    -0.118
   H2O                   5.551e+001  9.844e-001     1.744    -0.007     0.000
Al              1.707e-006
   Al(OH)4-              1.707e-006  1.255e-006    -5.768    -5.901    -0.134
   Al(OH)3               1.893e-013  2.139e-013   -12.723   -12.670     0.053
   Al(OH)2+              6.344e-019  4.664e-019   -18.198   -18.331    -0.134
   AlOH+2                6.542e-026  1.912e-026   -25.184   -25.719    -0.534
   Al+3                  7.084e-033  6.182e-034   -32.150   -33.209    -1.059
   AlSO4+                3.659e-033  2.690e-033   -32.437   -32.570    -0.134
   Al(SO4)2-             1.592e-034  1.170e-034   -33.798   -33.932    -0.134
   AlHSO4+2              0.000e+000  0.000e+000   -45.588   -46.122    -0.534
C(-4)           0.000e+000
   CH4                   0.000e+000  0.000e+000   -48.393   -48.340     0.053
C(4)            1.004e-003
   CaCO3                 5.784e-004  6.536e-004    -3.238    -3.185     0.053
   NaCO3-                2.420e-004  1.779e-004    -3.616    -3.750    -0.134
   CO3-2                 1.645e-004  3.704e-005    -3.784    -4.431    -0.648
   SrCO3                 9.527e-006  1.077e-005    -5.021    -4.968     0.053
   MgCO3                 9.367e-006  1.058e-005    -5.028    -4.975     0.053
   HCO3-                 3.626e-007  2.497e-007    -6.441    -6.603    -0.162
   CaHCO3+               4.859e-008  3.347e-008    -7.313    -7.475    -0.162
   NaHCO3                3.206e-008  3.623e-008    -7.494    -7.441     0.053
   SrHCO3+               2.525e-009  1.739e-009    -8.598    -8.760    -0.162
   MgHCO3+               1.190e-009  8.751e-010    -8.924    -9.058    -0.134
   CO2                   1.596e-013  1.804e-013   -12.797   -12.744     0.053
Ca              5.122e-002
   Ca+2                  4.071e-002  1.050e-002    -1.390    -1.979    -0.588
   CaOH+                 7.381e-003  5.427e-003    -2.132    -2.265    -0.134
   CaSO4                 2.552e-003  2.884e-003    -2.593    -2.540     0.053
   CaCO3                 5.784e-004  6.536e-004    -3.238    -3.185     0.053
   CaHCO3+               4.859e-008  3.347e-008    -7.313    -7.475    -0.162
   CaHSO4+               7.267e-015  5.343e-015   -14.139   -14.272    -0.134
Cl              4.218e-001
   Cl-                   4.218e-001  2.698e-001    -0.375    -0.569    -0.194
H(0)            1.253e-018
   H2                    6.265e-019  7.079e-019   -18.203   -18.150     0.053
K               4.419e-003
   K+                    4.356e-003  2.787e-003    -2.361    -2.555    -0.194
   KSO4-                 3.664e-005  2.694e-005    -4.436    -4.570    -0.134
   KOH                   2.662e-005  3.008e-005    -4.575    -4.522     0.053
Mg              5.724e-003
   MgOH+                 4.604e-003  3.385e-003    -2.337    -2.470    -0.134
   Mg+2                  1.026e-003  2.995e-004    -2.989    -3.524    -0.535
   MgSO4                 8.549e-005  9.659e-005    -4.068    -4.015     0.053
   MgCO3                 9.367e-006  1.058e-005    -5.028    -4.975     0.053
   MgHCO3+               1.190e-009  8.751e-010    -8.924    -9.058    -0.134
Na              3.716e-001
   Na+                   3.642e-001  2.580e-001    -0.439    -0.588    -0.150
   NaOH                  4.696e-003  5.306e-003    -2.328    -2.275     0.053
   NaSO4-                2.420e-003  1.779e-003    -2.616    -2.750    -0.134
   NaCO3-                2.420e-004  1.779e-004    -3.616    -3.750    -0.134
   NaHCO3                3.206e-008  3.623e-008    -7.494    -7.441     0.053
Np(4)           1.004e-010
   Np(OH)4               1.004e-010  1.134e-010    -9.998    -9.945     0.053
   Np+4                  0.000e+000  0.000e+000   -47.951   -50.088    -2.137
Np(5)           2.356e-014
   NpO2(OH)2-            1.616e-014  1.188e-014   -13.792   -13.925    -0.134
   NpO2OH                6.739e-015  7.614e-015   -14.171   -14.118     0.053
   NpO2+                 6.637e-016  4.880e-016   -15.178   -15.312    -0.134
O(0)            0.000e+000
   O2                    0.000e+000  0.000e+000   -56.147   -56.094     0.053
S(-2)           0.000e+000
   S-2                   0.000e+000  0.000e+000   -41.426   -42.102    -0.676
   HS-                   0.000e+000  0.000e+000   -41.482   -41.684    -0.202
   H2S                   0.000e+000  0.000e+000   -47.296   -47.242     0.053
S(6)            1.205e-002
   SO4-2                 6.849e-003  1.376e-003    -2.164    -2.861    -0.697
   CaSO4                 2.552e-003  2.884e-003    -2.593    -2.540     0.053
   NaSO4-                2.420e-003  1.779e-003    -2.616    -2.750    -0.134
   SrSO4                 1.081e-004  1.222e-004    -3.966    -3.913     0.053
   MgSO4                 8.549e-005  9.659e-005    -4.068    -4.015     0.053
   KSO4-                 3.664e-005  2.694e-005    -4.436    -4.570    -0.134
   HSO4-                 5.754e-014  4.230e-014   -13.240   -13.374    -0.134
   CaHSO4+               7.267e-015  5.343e-015   -14.139   -14.272    -0.134
   AlSO4+                3.659e-033  2.690e-033   -32.437   -32.570    -0.134
   Al(SO4)2-             1.592e-034  1.170e-034   -33.798   -33.932    -0.134
   AlHSO4+2              0.000e+000  0.000e+000   -45.588   -46.122    -0.534
Si              2.009e-003
   H3SiO4-               1.302e-003  9.573e-004    -2.885    -3.019    -0.134
   H2SiO4-2              7.047e-004  2.059e-004    -3.152    -3.686    -0.534
   H4SiO4                1.817e-006  2.053e-006    -5.741    -5.688     0.053
Sr              2.009e-003
   Sr+2                  1.784e-003  4.553e-004    -2.749    -3.342    -0.593
   SrSO4                 1.081e-004  1.222e-004    -3.966    -3.913     0.053
   SrOH+                 1.073e-004  7.269e-005    -3.970    -4.139    -0.169
   SrCO3                 9.527e-006  1.077e-005    -5.021    -4.968     0.053
   SrHCO3+               2.525e-009  1.739e-009    -8.598    -8.760    -0.162

------------------------------Saturation indices-------------------------------

	Phase               SI log IAP  log KT

	Al(OH)3(a)       -6.53    4.27   10.80  Al(OH)3
	Albite           -5.50  -23.50  -18.00  NaAlSi3O8
	Alunite         -31.55  -32.95   -1.40  KAl3(SO4)2(OH)6
	Anhydrite        -0.48   -4.84   -4.36  CaSO4
	Anorthite        -5.39  -25.10  -19.71  CaAl2Si2O8
	Aragonite         1.93   -6.41   -8.34  CaCO3
	Ca-Montmorillonite -14.84  -59.87  -45.03  Ca0.165Al2.33Si3.67O10(OH)2
	Calcite           2.07   -6.41   -8.48  CaCO3
	Celestite         0.43   -6.20   -6.63  SrSO4
	CH4(g)          -45.48  -48.34   -2.86  CH4
	Chalcedony       -2.12   -5.67   -3.55  SiO2
	Chlorite(14A)    30.48   98.86   68.38  Mg5Al2Si3O10(OH)8
	Chrysotile       20.85   53.05   32.20  Mg3Si2O5(OH)4
	CO2(g)          -11.28  -12.74   -1.47  CO2
	Dolomite          2.72  -14.37  -17.09  CaMg(CO3)2
	Fix_pe            5.00    5.00    0.00  e-
	Gibbsite         -3.84    4.27    8.11  Al(OH)3
	Gypsum           -0.27   -4.85   -4.58  CaSO4:2H2O
	H2(g)           -15.00  -18.15   -3.15  H2
	H2O(g)           -1.52   -0.01    1.51  H2O
	H2S(g)          -46.25  -47.24   -1.00  H2S
	Halite           -2.74   -1.16    1.58  NaCl
	Illite          -10.55  -50.82  -40.27  K0.6Mg0.25Al2.3Si3.5O10(OH)2
	K-feldspar       -4.89  -25.46  -20.57  KAlSi3O8
	K-mica           -6.95    5.76   12.70  KAl3Si3O10(OH)2
	Kaolinite       -10.23   -2.80    7.43  Al2Si2O5(OH)4
	Neptunium(IV)hydroxide  -0.86   -0.12    0.74  Np(OH)4
	Neptunium(IV)oxide   2.58   -0.10   -2.68  NpO2
	Neptunium(IV)oxide(am)  -1.63   -0.10    1.53  NpO2
	O2(g)           -53.20  -56.09   -2.89  O2
	Quartz           -1.69   -5.67   -3.98  SiO2
	Sepiolite        10.13   25.89   15.76  Mg2Si3O7.5OH:3H2O
	Sepiolite(d)      7.23   25.89   18.66  Mg2Si3O7.5OH:3H2O
	SiO2(a)          -2.96   -5.67   -2.71  SiO2
	Strontianite      1.50   -7.77   -9.27  SrCO3
	Sulfur          -37.12  -32.24    4.88  S
	Talc             20.31   41.71   21.40  Mg3Si4O10(OH)2

------------------
End of simulation.
------------------

------------------------------------
Reading input data for simulation 6.
------------------------------------

	USE solution 1
	EQUILIBRIUM_PHASES 1
	Fix_pe 4  O2(g)
	END
-----------------------------------------
Beginning of batch-reaction calculations.
-----------------------------------------

Reaction step 1.

Using solution 1.	Reference Backfill water
Using pure phase assemblage 1.	

-------------------------------Phase assemblage--------------------------------

                                                      Moles in assemblage
Phase                  SI log IAP  log KT      Initial       Final       Delta

Fix_pe               4.00    4.00    0.00
	 O2                 is reactant     1.000e+001  1.000e+001  2.505e-011

-----------------------------Solution composition------------------------------

	Elements           Molality       Moles

	Al               1.707e-006  1.707e-006
	C                1.004e-003  1.004e-003
	Ca               5.122e-002  5.122e-002
	Cl               4.218e-001  4.218e-001
	K                4.419e-003  4.419e-003
	Mg               5.724e-003  5.724e-003
	Na               3.716e-001  3.716e-001
	Np               1.004e-010  1.004e-010
	S                1.205e-002  1.205e-002
	Si               2.009e-003  2.009e-003
	Sr               2.009e-003  2.009e-003

----------------------------Description of solution----------------------------

                                       pH  =  12.500      Charge balance
                                       pe  =  -4.000      Adjusted to redox equilibrium
       Specific Conductance (uS/cm, 25 oC) = 48192
                          Density (g/cm3)  =   1.01714
                        Activity of water  =   0.984
                           Ionic strength  =  5.305e-001
                       Mass of water (kg)  =  1.000e+000
                 Total alkalinity (eq/kg)  =  7.115e-002
                       Total CO2 (mol/kg)  =  1.004e-003
                      Temperature (deg C)  =  25.000
                  Electrical balance (eq)  = -2.314e-002
 Percent error, 100*(Cat-|An|)/(Cat+|An|)  =  -2.41
                               Iterations  =  12
                                  Total H  = 1.110842e+002
                                  Total O  = 5.563190e+001

----------------------------Distribution of species----------------------------

                                                   Log       Log         Log 
   Species                 Molality    Activity  Molality  Activity     Gamma

   OH-                   4.961e-002  3.116e-002    -1.304    -1.506    -0.202
   H+                    4.147e-013  3.162e-013   -12.382   -12.500    -0.118
   H2O                   5.551e+001  9.844e-001     1.744    -0.007     0.000
Al              1.707e-006
   Al(OH)4-              1.707e-006  1.255e-006    -5.768    -5.901    -0.134
   Al(OH)3               1.893e-013  2.139e-013   -12.723   -12.670     0.053
   Al(OH)2+              6.344e-019  4.664e-019   -18.198   -18.331    -0.134
   AlOH+2                6.542e-026  1.912e-026   -25.184   -25.719    -0.534
   Al+3                  7.084e-033  6.182e-034   -32.150   -33.209    -1.059
   AlSO4+                3.659e-033  2.690e-033   -32.437   -32.570    -0.134
   Al(SO4)2-             1.592e-034  1.170e-034   -33.798   -33.932    -0.134
   AlHSO4+2              0.000e+000  0.000e+000   -45.588   -46.122    -0.534
C(-4)           0.000e+000
   CH4                   0.000e+000  0.000e+000   -56.393   -56.340     0.053
C(4)            1.004e-003
   CaCO3                 5.784e-004  6.536e-004    -3.238    -3.185     0.053
   NaCO3-                2.420e-004  1.779e-004    -3.616    -3.750    -0.134
   CO3-2                 1.645e-004  3.704e-005    -3.784    -4.431    -0.648
   SrCO3                 9.527e-006  1.077e-005    -5.021    -4.968     0.053
   MgCO3                 9.367e-006  1.058e-005    -5.028    -4.975     0.053
   HCO3-                 3.626e-007  2.497e-007    -6.441    -6.603    -0.162
   CaHCO3+               4.859e-008  3.347e-008    -7.313    -7.475    -0.162
   NaHCO3                3.206e-008  3.623e-008    -7.494    -7.441     0.053
   SrHCO3+               2.525e-009  1.739e-009    -8.598    -8.760    -0.162
   MgHCO3+               1.190e-009  8.751e-010    -8.924    -9.058    -0.134
   CO2                   1.596e-013  1.804e-013   -12.797   -12.744     0.053
Ca              5.122e-002
   Ca+2                  4.071e-002  1.050e-002    -1.390    -1.979    -0.588
   CaOH+                 7.381e-003  5.427e-003    -2.132    -2.265    -0.134
   CaSO4                 2.552e-003  2.884e-003    -2.593    -2.540     0.053
   CaCO3                 5.784e-004  6.536e-004    -3.238    -3.185     0.053
   CaHCO3+               4.859e-008  3.347e-008    -7.313    -7.475    -0.162
   CaHSO4+               7.267e-015  5.343e-015   -14.139   -14.272    -0.134
Cl              4.218e-001
   Cl-                   4.218e-001  2.698e-001    -0.375    -0.569    -0.194
H(0)            1.253e-020
   H2                    6.265e-021  7.079e-021   -20.203   -20.150     0.053
K               4.419e-003
   K+                    4.356e-003  2.787e-003    -2.361    -2.555    -0.194
   KSO4-                 3.664e-005  2.694e-005    -4.436    -4.570    -0.134
   KOH                   2.662e-005  3.008e-005    -4.575    -4.522     0.053
Mg              5.724e-003
   MgOH+                 4.604e-003  3.385e-003    -2.337    -2.470    -0.134
   Mg+2                  1.026e-003  2.995e-004    -2.989    -3.524    -0.535
   MgSO4                 8.549e-005  9.659e-005    -4.068    -4.015     0.053
   MgCO3                 9.367e-006  1.058e-005    -5.028    -4.975     0.053
   MgHCO3+               1.190e-009  8.751e-010    -8.924    -9.058    -0.134
Na              3.716e-001
   Na+                   3.642e-001  2.580e-001    -0.439    -0.588    -0.150
   NaOH                  4.696e-003  5.306e-003    -2.328    -2.275     0.053
   NaSO4-                2.420e-003  1.779e-003    -2.616    -2.750    -0.134
   NaCO3-                2.420e-004  1.779e-004    -3.616    -3.750    -0.134
   NaHCO3                3.206e-008  3.623e-008    -7.494    -7.441     0.053
Np(4)           1.002e-010
   Np(OH)4               1.002e-010  1.132e-010    -9.999    -9.946     0.053
   Np+4                  0.000e+000  0.000e+000   -47.952   -50.089    -2.137
Np(5)           2.351e-013
   NpO2(OH)2-            1.612e-013  1.185e-013   -12.793   -12.926    -0.134
   NpO2OH                6.724e-014  7.598e-014   -13.172   -13.119     0.053
   NpO2+                 6.623e-015  4.870e-015   -14.179   -14.312    -0.134
O(0)            0.000e+000
   O2                    0.000e+000  0.000e+000   -52.147   -52.094     0.053
S(-2)           0.000e+000
   S-2                   0.000e+000  0.000e+000   -49.426   -50.102    -0.676
   HS-                   0.000e+000  0.000e+000   -49.482   -49.684    -0.202
   H2S                   0.000e+000  0.000e+000   -55.296   -55.242     0.053
S(6)            1.205e-002
   SO4-2                 6.849e-003  1.376e-003    -2.164    -2.861    -0.697
   CaSO4                 2.552e-003  2.884e-003    -2.593    -2.540     0.053
   NaSO4-                2.420e-003  1.779e-003    -2.616    -2.750    -0.134
   SrSO4                 1.081e-004  1.222e-004    -3.966    -3.913     0.053
   MgSO4                 8.549e-005  9.659e-005    -4.068    -4.015     0.053
   KSO4-                 3.664e-005  2.694e-005    -4.436    -4.570    -0.134
   HSO4-                 5.754e-014  4.230e-014   -13.240   -13.374    -0.134
   CaHSO4+               7.267e-015  5.343e-015   -14.139   -14.272    -0.134
   AlSO4+                3.659e-033  2.690e-033   -32.437   -32.570    -0.134
   Al(SO4)2-             1.592e-034  1.170e-034   -33.798   -33.932    -0.134
   AlHSO4+2              0.000e+000  0.000e+000   -45.588   -46.122    -0.534
Si              2.009e-003
   H3SiO4-               1.302e-003  9.573e-004    -2.885    -3.019    -0.134
   H2SiO4-2              7.047e-004  2.059e-004    -3.152    -3.686    -0.534
   H4SiO4                1.817e-006  2.053e-006    -5.741    -5.688     0.053
Sr              2.009e-003
   Sr+2                  1.784e-003  4.553e-004    -2.749    -3.342    -0.593
   SrSO4                 1.081e-004  1.222e-004    -3.966    -3.913     0.053
   SrOH+                 1.073e-004  7.269e-005    -3.970    -4.139    -0.169
   SrCO3                 9.527e-006  1.077e-005    -5.021    -4.968     0.053
   SrHCO3+               2.525e-009  1.739e-009    -8.598    -8.760    -0.162

------------------------------Saturation indices-------------------------------

	Phase               SI log IAP  log KT

	Al(OH)3(a)       -6.53    4.27   10.80  Al(OH)3
	Albite           -5.50  -23.50  -18.00  NaAlSi3O8
	Alunite         -31.55  -32.95   -1.40  KAl3(SO4)2(OH)6
	Anhydrite        -0.48   -4.84   -4.36  CaSO4
	Anorthite        -5.39  -25.10  -19.71  CaAl2Si2O8
	Aragonite         1.93   -6.41   -8.34  CaCO3
	Ca-Montmorillonite -14.84  -59.87  -45.03  Ca0.165Al2.33Si3.67O10(OH)2
	Calcite           2.07   -6.41   -8.48  CaCO3
	Celestite         0.43   -6.20   -6.63  SrSO4
	CH4(g)          -53.48  -56.34   -2.86  CH4
	Chalcedony       -2.12   -5.67   -3.55  SiO2
	Chlorite(14A)    30.48   98.86   68.38  Mg5Al2Si3O10(OH)8
	Chrysotile       20.85   53.05   32.20  Mg3Si2O5(OH)4
	CO2(g)          -11.28  -12.74   -1.47  CO2
	Dolomite          2.72  -14.37  -17.09  CaMg(CO3)2
	Fix_pe            4.00    4.00    0.00  e-
	Gibbsite         -3.84    4.27    8.11  Al(OH)3
	Gypsum           -0.27   -4.85   -4.58  CaSO4:2H2O
	H2(g)           -17.00  -20.15   -3.15  H2
	H2O(g)           -1.52   -0.01    1.51  H2O
	H2S(g)          -54.25  -55.24   -1.00  H2S
	Halite           -2.74   -1.16    1.58  NaCl
	Illite          -10.55  -50.82  -40.27  K0.6Mg0.25Al2.3Si3.5O10(OH)2
	K-feldspar       -4.89  -25.46  -20.57  KAlSi3O8
	K-mica           -6.95    5.76   12.70  KAl3Si3O10(OH)2
	Kaolinite       -10.23   -2.80    7.43  Al2Si2O5(OH)4
	Neptunium(IV)hydroxide  -0.86   -0.12    0.74  Np(OH)4
	Neptunium(IV)oxide   2.58   -0.10   -2.68  NpO2
	Neptunium(IV)oxide(am)  -1.63   -0.10    1.53  NpO2
	O2(g)           -49.20  -52.09   -2.89  O2
	Quartz           -1.69   -5.67   -3.98  SiO2
	Sepiolite        10.13   25.89   15.76  Mg2Si3O7.5OH:3H2O
	Sepiolite(d)      7.23   25.89   18.66  Mg2Si3O7.5OH:3H2O
	SiO2(a)          -2.96   -5.67   -2.71  SiO2
	Strontianite      1.50   -7.77   -9.27  SrCO3
	Sulfur          -43.12  -38.24    4.88  S
	Talc             20.31   41.71   21.40  Mg3Si4O10(OH)2

------------------
End of simulation.
------------------

------------------------------------
Reading input data for simulation 7.
------------------------------------

	USE solution 1
	EQUILIBRIUM_PHASES 1
	Fix_pe 3  O2(g)
	END
-----------------------------------------
Beginning of batch-reaction calculations.
-----------------------------------------

Reaction step 1.

Using solution 1.	Reference Backfill water
Using pure phase assemblage 1.	

-------------------------------Phase assemblage--------------------------------

                                                      Moles in assemblage
Phase                  SI log IAP  log KT      Initial       Final       Delta

Fix_pe               3.00    3.00    0.00
	 O2                 is reactant     1.000e+001  1.000e+001  2.454e-011

-----------------------------Solution composition------------------------------

	Elements           Molality       Moles

	Al               1.707e-006  1.707e-006
	C                1.004e-003  1.004e-003
	Ca               5.122e-002  5.122e-002
	Cl               4.218e-001  4.218e-001
	K                4.419e-003  4.419e-003
	Mg               5.724e-003  5.724e-003
	Na               3.716e-001  3.716e-001
	Np               1.004e-010  1.004e-010
	S                1.205e-002  1.205e-002
	Si               2.009e-003  2.009e-003
	Sr               2.009e-003  2.009e-003

----------------------------Description of solution----------------------------

                                       pH  =  12.500      Charge balance
                                       pe  =  -3.000      Adjusted to redox equilibrium
       Specific Conductance (uS/cm, 25 oC) = 48192
                          Density (g/cm3)  =   1.01714
                        Activity of water  =   0.984
                           Ionic strength  =  5.305e-001
                       Mass of water (kg)  =  1.000e+000
                 Total alkalinity (eq/kg)  =  7.115e-002
                       Total CO2 (mol/kg)  =  1.004e-003
                      Temperature (deg C)  =  25.000
                  Electrical balance (eq)  = -2.314e-002
 Percent error, 100*(Cat-|An|)/(Cat+|An|)  =  -2.41
                               Iterations  =  11
                                  Total H  = 1.110842e+002
                                  Total O  = 5.563190e+001

----------------------------Distribution of species----------------------------

                                                   Log       Log         Log 
   Species                 Molality    Activity  Molality  Activity     Gamma

   OH-                   4.961e-002  3.116e-002    -1.304    -1.506    -0.202
   H+                    4.147e-013  3.162e-013   -12.382   -12.500    -0.118
   H2O                   5.551e+001  9.844e-001     1.744    -0.007     0.000
Al              1.707e-006
   Al(OH)4-              1.707e-006  1.255e-006    -5.768    -5.901    -0.134
   Al(OH)3               1.893e-013  2.139e-013   -12.723   -12.670     0.053
   Al(OH)2+              6.344e-019  4.664e-019   -18.198   -18.331    -0.134
   AlOH+2                6.542e-026  1.912e-026   -25.184   -25.719    -0.534
   Al+3                  7.084e-033  6.182e-034   -32.150   -33.209    -1.059
   AlSO4+                3.659e-033  2.690e-033   -32.437   -32.570    -0.134
   Al(SO4)2-             1.592e-034  1.170e-034   -33.798   -33.932    -0.134
   AlHSO4+2              0.000e+000  0.000e+000   -45.588   -46.122    -0.534
C(-4)           0.000e+000
   CH4                   0.000e+000  0.000e+000   -64.393   -64.340     0.053
C(4)            1.004e-003
   CaCO3                 5.784e-004  6.536e-004    -3.238    -3.185     0.053
   NaCO3-                2.420e-004  1.779e-004    -3.616    -3.750    -0.134
   CO3-2                 1.645e-004  3.704e-005    -3.784    -4.431    -0.648
   SrCO3                 9.527e-006  1.077e-005    -5.021    -4.968     0.053
   MgCO3                 9.367e-006  1.058e-005    -5.028    -4.975     0.053
   HCO3-                 3.626e-007  2.497e-007    -6.441    -6.603    -0.162
   CaHCO3+               4.859e-008  3.347e-008    -7.313    -7.475    -0.162
   NaHCO3                3.206e-008  3.623e-008    -7.494    -7.441     0.053
   SrHCO3+               2.525e-009  1.739e-009    -8.598    -8.760    -0.162
   MgHCO3+               1.190e-009  8.751e-010    -8.924    -9.058    -0.134
   CO2                   1.596e-013  1.804e-013   -12.797   -12.744     0.053
Ca              5.122e-002
   Ca+2                  4.071e-002  1.050e-002    -1.390    -1.979    -0.588
   CaOH+                 7.381e-003  5.427e-003    -2.132    -2.265    -0.134
   CaSO4                 2.552e-003  2.884e-003    -2.593    -2.540     0.053
   CaCO3                 5.784e-004  6.536e-004    -3.238    -3.185     0.053
   CaHCO3+               4.859e-008  3.347e-008    -7.313    -7.475    -0.162
   CaHSO4+               7.267e-015  5.343e-015   -14.139   -14.272    -0.134
Cl              4.218e-001
   Cl-                   4.218e-001  2.698e-001    -0.375    -0.569    -0.194
H(0)            1.253e-022
   H2                    6.265e-023  7.079e-023   -22.203   -22.150     0.053
K               4.419e-003
   K+                    4.356e-003  2.787e-003    -2.361    -2.555    -0.194
   KSO4-                 3.664e-005  2.694e-005    -4.436    -4.570    -0.134
   KOH                   2.662e-005  3.008e-005    -4.575    -4.522     0.053
Mg              5.724e-003
   MgOH+                 4.604e-003  3.385e-003    -2.337    -2.470    -0.134
   Mg+2                  1.026e-003  2.995e-004    -2.989    -3.524    -0.535
   MgSO4                 8.549e-005  9.659e-005    -4.068    -4.015     0.053
   MgCO3                 9.367e-006  1.058e-005    -5.028    -4.975     0.053
   MgHCO3+               1.190e-009  8.751e-010    -8.924    -9.058    -0.134
Na              3.716e-001
   Na+                   3.642e-001  2.580e-001    -0.439    -0.588    -0.150
   NaOH                  4.696e-003  5.306e-003    -2.328    -2.275     0.053
   NaSO4-                2.420e-003  1.779e-003    -2.616    -2.750    -0.134
   NaCO3-                2.420e-004  1.779e-004    -3.616    -3.750    -0.134
   NaHCO3                3.206e-008  3.623e-008    -7.494    -7.441     0.053
Np(4)           9.813e-011
   Np(OH)4               9.813e-011  1.109e-010   -10.008    -9.955     0.053
   Np+4                  0.000e+000  0.000e+000   -47.961   -50.098    -2.137
Np(5)           2.303e-012
   NpO2(OH)2-            1.579e-012  1.161e-012   -11.802   -11.935    -0.134
   NpO2OH                6.586e-013  7.441e-013   -12.181   -12.128     0.053
   NpO2+                 6.487e-014  4.769e-014   -13.188   -13.322    -0.134
O(0)            0.000e+000
   O2                    0.000e+000  0.000e+000   -48.147   -48.094     0.053
S(-2)           0.000e+000
   S-2                   0.000e+000  0.000e+000   -57.426   -58.102    -0.676
   HS-                   0.000e+000  0.000e+000   -57.482   -57.684    -0.202
   H2S                   0.000e+000  0.000e+000   -63.296   -63.242     0.053
S(6)            1.205e-002
   SO4-2                 6.849e-003  1.376e-003    -2.164    -2.861    -0.697
   CaSO4                 2.552e-003  2.884e-003    -2.593    -2.540     0.053
   NaSO4-                2.420e-003  1.779e-003    -2.616    -2.750    -0.134
   SrSO4                 1.081e-004  1.222e-004    -3.966    -3.913     0.053
   MgSO4                 8.549e-005  9.659e-005    -4.068    -4.015     0.053
   KSO4-                 3.664e-005  2.694e-005    -4.436    -4.570    -0.134
   HSO4-                 5.754e-014  4.230e-014   -13.240   -13.374    -0.134
   CaHSO4+               7.267e-015  5.343e-015   -14.139   -14.272    -0.134
   AlSO4+                3.659e-033  2.690e-033   -32.437   -32.570    -0.134
   Al(SO4)2-             1.592e-034  1.170e-034   -33.798   -33.932    -0.134
   AlHSO4+2              0.000e+000  0.000e+000   -45.588   -46.122    -0.534
Si              2.009e-003
   H3SiO4-               1.302e-003  9.573e-004    -2.885    -3.019    -0.134
   H2SiO4-2              7.047e-004  2.059e-004    -3.152    -3.686    -0.534
   H4SiO4                1.817e-006  2.053e-006    -5.741    -5.688     0.053
Sr              2.009e-003
   Sr+2                  1.784e-003  4.553e-004    -2.749    -3.342    -0.593
   SrSO4                 1.081e-004  1.222e-004    -3.966    -3.913     0.053
   SrOH+                 1.073e-004  7.269e-005    -3.970    -4.139    -0.169
   SrCO3                 9.527e-006  1.077e-005    -5.021    -4.968     0.053
   SrHCO3+               2.525e-009  1.739e-009    -8.598    -8.760    -0.162

------------------------------Saturation indices-------------------------------

	Phase               SI log IAP  log KT

	Al(OH)3(a)       -6.53    4.27   10.80  Al(OH)3
	Albite           -5.50  -23.50  -18.00  NaAlSi3O8
	Alunite         -31.55  -32.95   -1.40  KAl3(SO4)2(OH)6
	Anhydrite        -0.48   -4.84   -4.36  CaSO4
	Anorthite        -5.39  -25.10  -19.71  CaAl2Si2O8
	Aragonite         1.93   -6.41   -8.34  CaCO3
	Ca-Montmorillonite -14.84  -59.87  -45.03  Ca0.165Al2.33Si3.67O10(OH)2
	Calcite           2.07   -6.41   -8.48  CaCO3
	Celestite         0.43   -6.20   -6.63  SrSO4
	CH4(g)          -61.48  -64.34   -2.86  CH4
	Chalcedony       -2.12   -5.67   -3.55  SiO2
	Chlorite(14A)    30.48   98.86   68.38  Mg5Al2Si3O10(OH)8
	Chrysotile       20.85   53.05   32.20  Mg3Si2O5(OH)4
	CO2(g)          -11.28  -12.74   -1.47  CO2
	Dolomite          2.72  -14.37  -17.09  CaMg(CO3)2
	Fix_pe            3.00    3.00    0.00  e-
	Gibbsite         -3.84    4.27    8.11  Al(OH)3
	Gypsum           -0.27   -4.85   -4.58  CaSO4:2H2O
	H2(g)           -19.00  -22.15   -3.15  H2
	H2O(g)           -1.52   -0.01    1.51  H2O
	H2S(g)          -62.25  -63.24   -1.00  H2S
	Halite           -2.74   -1.16    1.58  NaCl
	Illite          -10.55  -50.82  -40.27  K0.6Mg0.25Al2.3Si3.5O10(OH)2
	K-feldspar       -4.89  -25.46  -20.57  KAlSi3O8
	K-mica           -6.95    5.76   12.70  KAl3Si3O10(OH)2
	Kaolinite       -10.23   -2.80    7.43  Al2Si2O5(OH)4
	Neptunium(IV)hydroxide  -0.87   -0.13    0.74  Np(OH)4
	Neptunium(IV)oxide   2.57   -0.11   -2.68  NpO2
	Neptunium(IV)oxide(am)  -1.64   -0.11    1.53  NpO2
	O2(g)           -45.20  -48.09   -2.89  O2
	Quartz           -1.69   -5.67   -3.98  SiO2
	Sepiolite        10.13   25.89   15.76  Mg2Si3O7.5OH:3H2O
	Sepiolite(d)      7.23   25.89   18.66  Mg2Si3O7.5OH:3H2O
	SiO2(a)          -2.96   -5.67   -2.71  SiO2
	Strontianite      1.50   -7.77   -9.27  SrCO3
	Sulfur          -49.12  -44.24    4.88  S
	Talc             20.31   41.71   21.40  Mg3Si4O10(OH)2

------------------
End of simulation.
------------------

------------------------------------
Reading input data for simulation 8.
------------------------------------

	USE solution 1
	EQUILIBRIUM_PHASES 1
	Fix_pe 2  O2(g)
	END
-----------------------------------------
Beginning of batch-reaction calculations.
-----------------------------------------

Reaction step 1.

Using solution 1.	Reference Backfill water
Using pure phase assemblage 1.	

-------------------------------Phase assemblage--------------------------------

                                                      Moles in assemblage
Phase                  SI log IAP  log KT      Initial       Final       Delta

Fix_pe               2.00    2.00    0.00
	 O2                 is reactant     1.000e+001  1.000e+001  2.034e-011

-----------------------------Solution composition------------------------------

	Elements           Molality       Moles

	Al               1.707e-006  1.707e-006
	C                1.004e-003  1.004e-003
	Ca               5.122e-002  5.122e-002
	Cl               4.218e-001  4.218e-001
	K                4.419e-003  4.419e-003
	Mg               5.724e-003  5.724e-003
	Na               3.716e-001  3.716e-001
	Np               1.004e-010  1.004e-010
	S                1.205e-002  1.205e-002
	Si               2.009e-003  2.009e-003
	Sr               2.009e-003  2.009e-003

----------------------------Description of solution----------------------------

                                       pH  =  12.500      Charge balance
                                       pe  =  -2.000      Adjusted to redox equilibrium
       Specific Conductance (uS/cm, 25 oC) = 48192
                          Density (g/cm3)  =   1.01714
                        Activity of water  =   0.984
                           Ionic strength  =  5.305e-001
                       Mass of water (kg)  =  1.000e+000
                 Total alkalinity (eq/kg)  =  7.115e-002
                       Total CO2 (mol/kg)  =  1.004e-003
                      Temperature (deg C)  =  25.000
                  Electrical balance (eq)  = -2.314e-002
 Percent error, 100*(Cat-|An|)/(Cat+|An|)  =  -2.41
                               Iterations  =  10
                                  Total H  = 1.110842e+002
                                  Total O  = 5.563190e+001

----------------------------Distribution of species----------------------------

                                                   Log       Log         Log 
   Species                 Molality    Activity  Molality  Activity     Gamma

   OH-                   4.961e-002  3.116e-002    -1.304    -1.506    -0.202
   H+                    4.147e-013  3.162e-013   -12.382   -12.500    -0.118
   H2O                   5.551e+001  9.844e-001     1.744    -0.007     0.000
Al              1.707e-006
   Al(OH)4-              1.707e-006  1.255e-006    -5.768    -5.901    -0.134
   Al(OH)3               1.893e-013  2.139e-013   -12.723   -12.670     0.053
   Al(OH)2+              6.344e-019  4.664e-019   -18.198   -18.331    -0.134
   AlOH+2                6.542e-026  1.912e-026   -25.184   -25.719    -0.534
   Al+3                  7.084e-033  6.182e-034   -32.150   -33.209    -1.059
   AlSO4+                3.659e-033  2.690e-033   -32.437   -32.570    -0.134
   Al(SO4)2-             1.592e-034  1.170e-034   -33.798   -33.932    -0.134
   AlHSO4+2              0.000e+000  0.000e+000   -45.588   -46.122    -0.534
C(-4)           0.000e+000
   CH4                   0.000e+000  0.000e+000   -72.393   -72.340     0.053
C(4)            1.004e-003
   CaCO3                 5.784e-004  6.536e-004    -3.238    -3.185     0.053
   NaCO3-                2.420e-004  1.779e-004    -3.616    -3.750    -0.134
   CO3-2                 1.645e-004  3.704e-005    -3.784    -4.431    -0.648
   SrCO3                 9.527e-006  1.077e-005    -5.021    -4.968     0.053
   MgCO3                 9.367e-006  1.058e-005    -5.028    -4.975     0.053
   HCO3-                 3.626e-007  2.497e-007    -6.441    -6.603    -0.162
   CaHCO3+               4.859e-008  3.347e-008    -7.313    -7.475    -0.162
   NaHCO3                3.206e-008  3.623e-008    -7.494    -7.441     0.053
   SrHCO3+               2.525e-009  1.739e-009    -8.598    -8.760    -0.162
   MgHCO3+               1.190e-009  8.751e-010    -8.924    -9.058    -0.134
   CO2                   1.596e-013  1.804e-013   -12.797   -12.744     0.053
Ca              5.122e-002
   Ca+2                  4.071e-002  1.050e-002    -1.390    -1.979    -0.588
   CaOH+                 7.381e-003  5.427e-003    -2.132    -2.265    -0.134
   CaSO4                 2.552e-003  2.884e-003    -2.593    -2.540     0.053
   CaCO3                 5.784e-004  6.536e-004    -3.238    -3.185     0.053
   CaHCO3+               4.859e-008  3.347e-008    -7.313    -7.475    -0.162
   CaHSO4+               7.267e-015  5.343e-015   -14.139   -14.272    -0.134
Cl              4.218e-001
   Cl-                   4.218e-001  2.698e-001    -0.375    -0.569    -0.194
H(0)            1.253e-024
   H2                    6.265e-025  7.079e-025   -24.203   -24.150     0.053
K               4.419e-003
   K+                    4.356e-003  2.787e-003    -2.361    -2.555    -0.194
   KSO4-                 3.664e-005  2.694e-005    -4.436    -4.570    -0.134
   KOH                   2.662e-005  3.008e-005    -4.575    -4.522     0.053
Mg              5.724e-003
   MgOH+                 4.604e-003  3.385e-003    -2.337    -2.470    -0.134
   Mg+2                  1.026e-003  2.995e-004    -2.989    -3.524    -0.535
   MgSO4                 8.549e-005  9.659e-005    -4.068    -4.015     0.053
   MgCO3                 9.367e-006  1.058e-005    -5.028    -4.975     0.053
   MgHCO3+               1.190e-009  8.751e-010    -8.924    -9.058    -0.134
Na              3.716e-001
   Na+                   3.642e-001  2.580e-001    -0.439    -0.588    -0.150
   NaOH                  4.696e-003  5.306e-003    -2.328    -2.275     0.053
   NaSO4-                2.420e-003  1.779e-003    -2.616    -2.750    -0.134
   NaCO3-                2.420e-004  1.779e-004    -3.616    -3.750    -0.134
   NaHCO3                3.206e-008  3.623e-008    -7.494    -7.441     0.053
Np(4)           8.134e-011
   Np(OH)4               8.134e-011  9.191e-011   -10.090   -10.037     0.053
   Np+4                  0.000e+000  0.000e+000   -48.042   -50.179    -2.137
Np(5)           1.909e-011
   NpO2(OH)2-            1.309e-011  9.624e-012   -10.883   -11.017    -0.134
   NpO2OH                5.459e-012  6.168e-012   -11.263   -11.210     0.053
   NpO2+                 5.377e-013  3.954e-013   -12.269   -12.403    -0.134
O(0)            0.000e+000
   O2                    0.000e+000  0.000e+000   -44.147   -44.094     0.053
S(-2)           0.000e+000
   S-2                   0.000e+000  0.000e+000   -65.426   -66.102    -0.676
   HS-                   0.000e+000  0.000e+000   -65.482   -65.684    -0.202
   H2S                   0.000e+000  0.000e+000   -71.296   -71.242     0.053
S(6)            1.205e-002
   SO4-2                 6.849e-003  1.376e-003    -2.164    -2.861    -0.697
   CaSO4                 2.552e-003  2.884e-003    -2.593    -2.540     0.053
   NaSO4-                2.420e-003  1.779e-003    -2.616    -2.750    -0.134
   SrSO4                 1.081e-004  1.222e-004    -3.966    -3.913     0.053
   MgSO4                 8.549e-005  9.659e-005    -4.068    -4.015     0.053
   KSO4-                 3.664e-005  2.694e-005    -4.436    -4.570    -0.134
   HSO4-                 5.754e-014  4.230e-014   -13.240   -13.374    -0.134
   CaHSO4+               7.267e-015  5.343e-015   -14.139   -14.272    -0.134
   AlSO4+                3.659e-033  2.690e-033   -32.437   -32.570    -0.134
   Al(SO4)2-             1.592e-034  1.170e-034   -33.798   -33.932    -0.134
   AlHSO4+2              0.000e+000  0.000e+000   -45.588   -46.122    -0.534
Si              2.009e-003
   H3SiO4-               1.302e-003  9.573e-004    -2.885    -3.019    -0.134
   H2SiO4-2              7.047e-004  2.059e-004    -3.152    -3.686    -0.534
   H4SiO4                1.817e-006  2.053e-006    -5.741    -5.688     0.053
Sr              2.009e-003
   Sr+2                  1.784e-003  4.553e-004    -2.749    -3.342    -0.593
   SrSO4                 1.081e-004  1.222e-004    -3.966    -3.913     0.053
   SrOH+                 1.073e-004  7.269e-005    -3.970    -4.139    -0.169
   SrCO3                 9.527e-006  1.077e-005    -5.021    -4.968     0.053
   SrHCO3+               2.525e-009  1.739e-009    -8.598    -8.760    -0.162

------------------------------Saturation indices-------------------------------

	Phase               SI log IAP  log KT

	Al(OH)3(a)       -6.53    4.27   10.80  Al(OH)3
	Albite           -5.50  -23.50  -18.00  NaAlSi3O8
	Alunite         -31.55  -32.95   -1.40  KAl3(SO4)2(OH)6
	Anhydrite        -0.48   -4.84   -4.36  CaSO4
	Anorthite        -5.39  -25.10  -19.71  CaAl2Si2O8
	Aragonite         1.93   -6.41   -8.34  CaCO3
	Ca-Montmorillonite -14.84  -59.87  -45.03  Ca0.165Al2.33Si3.67O10(OH)2
	Calcite           2.07   -6.41   -8.48  CaCO3
	Celestite         0.43   -6.20   -6.63  SrSO4
	CH4(g)          -69.48  -72.34   -2.86  CH4
	Chalcedony       -2.12   -5.67   -3.55  SiO2
	Chlorite(14A)    30.48   98.86   68.38  Mg5Al2Si3O10(OH)8
	Chrysotile       20.85   53.05   32.20  Mg3Si2O5(OH)4
	CO2(g)          -11.28  -12.74   -1.47  CO2
	Dolomite          2.72  -14.37  -17.09  CaMg(CO3)2
	Fix_pe            2.00    2.00    0.00  e-
	Gibbsite         -3.84    4.27    8.11  Al(OH)3
	Gypsum           -0.27   -4.85   -4.58  CaSO4:2H2O
	H2(g)           -21.00  -24.15   -3.15  H2
	H2O(g)           -1.52   -0.01    1.51  H2O
	H2S(g)          -70.25  -71.24   -1.00  H2S
	Halite           -2.74   -1.16    1.58  NaCl
	Illite          -10.55  -50.82  -40.27  K0.6Mg0.25Al2.3Si3.5O10(OH)2
	K-feldspar       -4.89  -25.46  -20.57  KAlSi3O8
	K-mica           -6.95    5.76   12.70  KAl3Si3O10(OH)2
	Kaolinite       -10.23   -2.80    7.43  Al2Si2O5(OH)4
	Neptunium(IV)hydroxide  -0.95   -0.21    0.74  Np(OH)4
	Neptunium(IV)oxide   2.49   -0.19   -2.68  NpO2
	Neptunium(IV)oxide(am)  -1.72   -0.19    1.53  NpO2
	O2(g)           -41.20  -44.09   -2.89  O2
	Quartz           -1.69   -5.67   -3.98  SiO2
	Sepiolite        10.13   25.89   15.76  Mg2Si3O7.5OH:3H2O
	Sepiolite(d)      7.23   25.89   18.66  Mg2Si3O7.5OH:3H2O
	SiO2(a)          -2.96   -5.67   -2.71  SiO2
	Strontianite      1.50   -7.77   -9.27  SrCO3
	Sulfur          -55.12  -50.24    4.88  S
	Talc             20.31   41.71   21.40  Mg3Si4O10(OH)2

------------------
End of simulation.
------------------

------------------------------------
Reading input data for simulation 9.
------------------------------------

	USE solution 1
	EQUILIBRIUM_PHASES 1
	Fix_pe 1  O2(g)
	END
-----------------------------------------
Beginning of batch-reaction calculations.
-----------------------------------------

Reaction step 1.

Using solution 1.	Reference Backfill water
Using pure phase assemblage 1.	

-------------------------------Phase assemblage--------------------------------

                                                      Moles in assemblage
Phase                  SI log IAP  log KT      Initial       Final       Delta

Fix_pe               1.00    1.00    0.00
	 O2                 is reactant     1.000e+001  1.000e+001  7.505e-012

-----------------------------Solution composition------------------------------

	Elements           Molality       Moles

	Al               1.707e-006  1.707e-006
	C                1.004e-003  1.004e-003
	Ca               5.122e-002  5.122e-002
	Cl               4.218e-001  4.218e-001
	K                4.419e-003  4.419e-003
	Mg               5.724e-003  5.724e-003
	Na               3.716e-001  3.716e-001
	Np               1.004e-010  1.004e-010
	S                1.205e-002  1.205e-002
	Si               2.009e-003  2.009e-003
	Sr               2.009e-003  2.009e-003

----------------------------Description of solution----------------------------

                                       pH  =  12.500      Charge balance
                                       pe  =  -1.000      Adjusted to redox equilibrium
       Specific Conductance (uS/cm, 25 oC) = 48192
                          Density (g/cm3)  =   1.01714
                        Activity of water  =   0.984
                           Ionic strength  =  5.305e-001
                       Mass of water (kg)  =  1.000e+000
                 Total alkalinity (eq/kg)  =  7.115e-002
                       Total CO2 (mol/kg)  =  1.004e-003
                      Temperature (deg C)  =  25.000
                  Electrical balance (eq)  = -2.314e-002
 Percent error, 100*(Cat-|An|)/(Cat+|An|)  =  -2.41
                               Iterations  =   9
                                  Total H  = 1.110842e+002
                                  Total O  = 5.563190e+001

----------------------------Distribution of species----------------------------

                                                   Log       Log         Log 
   Species                 Molality    Activity  Molality  Activity     Gamma

   OH-                   4.961e-002  3.116e-002    -1.304    -1.506    -0.202
   H+                    4.147e-013  3.162e-013   -12.382   -12.500    -0.118
   H2O                   5.551e+001  9.844e-001     1.744    -0.007     0.000
Al              1.707e-006
   Al(OH)4-              1.707e-006  1.255e-006    -5.768    -5.901    -0.134
   Al(OH)3               1.893e-013  2.139e-013   -12.723   -12.670     0.053
   Al(OH)2+              6.344e-019  4.664e-019   -18.198   -18.331    -0.134
   AlOH+2                6.542e-026  1.912e-026   -25.184   -25.719    -0.534
   Al+3                  7.084e-033  6.182e-034   -32.150   -33.209    -1.059
   AlSO4+                3.659e-033  2.690e-033   -32.437   -32.570    -0.134
   Al(SO4)2-             1.592e-034  1.170e-034   -33.798   -33.932    -0.134
   AlHSO4+2              0.000e+000  0.000e+000   -45.588   -46.122    -0.534
C(-4)           0.000e+000
   CH4                   0.000e+000  0.000e+000   -80.393   -80.340     0.053
C(4)            1.004e-003
   CaCO3                 5.784e-004  6.536e-004    -3.238    -3.185     0.053
   NaCO3-                2.420e-004  1.779e-004    -3.616    -3.750    -0.134
[...]
                                       pe  =   2.000      Adjusted to redox equilibrium
       Specific Conductance (uS/cm, 25 oC) = 48192
                          Density (g/cm3)  =   1.01714
                        Activity of water  =   0.984
                           Ionic strength  =  5.305e-001
                       Mass of water (kg)  =  1.000e+000
                 Total alkalinity (eq/kg)  =  7.115e-002
                       Total CO2 (mol/kg)  =  1.004e-003
                      Temperature (deg C)  =  25.000
                  Electrical balance (eq)  = -2.314e-002
 Percent error, 100*(Cat-|An|)/(Cat+|An|)  =  -2.41
                               Iterations  =   4
                                  Total H  = 1.110842e+002
                                  Total O  = 5.563190e+001

----------------------------Distribution of species----------------------------

                                                   Log       Log         Log 
   Species                 Molality    Activity  Molality  Activity     Gamma

   OH-                   4.961e-002  3.116e-002    -1.304    -1.506    -0.202
   H+                    4.147e-013  3.162e-013   -12.382   -12.500    -0.118
   H2O                   5.551e+001  9.844e-001     1.744    -0.007     0.000
Al              1.707e-006
   Al(OH)4-              1.707e-006  1.255e-006    -5.768    -5.901    -0.134
   Al(OH)3               1.893e-013  2.139e-013   -12.723   -12.670     0.053
   Al(OH)2+              6.344e-019  4.664e-019   -18.198   -18.331    -0.134
   AlOH+2                6.542e-026  1.912e-026   -25.184   -25.719    -0.534
   Al+3                  7.084e-033  6.182e-034   -32.150   -33.209    -1.059
   AlSO4+                3.659e-033  2.690e-033   -32.437   -32.570    -0.134
   Al(SO4)2-             1.592e-034  1.170e-034   -33.798   -33.932    -0.134
   AlHSO4+2              0.000e+000  0.000e+000   -45.588   -46.122    -0.534
C(-4)           0.000e+000
   CH4                   0.000e+000  0.000e+000  -104.393  -104.340     0.053
C(4)            1.004e-003
   CaCO3                 5.784e-004  6.536e-004    -3.238    -3.185     0.053
   NaCO3-                2.420e-004  1.779e-004    -3.616    -3.750    -0.134
   CO3-2                 1.645e-004  3.704e-005    -3.784    -4.431    -0.648
   SrCO3                 9.527e-006  1.077e-005    -5.021    -4.968     0.053
   MgCO3                 9.367e-006  1.058e-005    -5.028    -4.975     0.053
   HCO3-                 3.626e-007  2.497e-007    -6.441    -6.603    -0.162
   CaHCO3+               4.859e-008  3.347e-008    -7.313    -7.475    -0.162
   NaHCO3                3.206e-008  3.623e-008    -7.494    -7.441     0.053
   SrHCO3+               2.525e-009  1.739e-009    -8.598    -8.760    -0.162
   MgHCO3+               1.190e-009  8.751e-010    -8.924    -9.058    -0.134
   CO2                   1.596e-013  1.804e-013   -12.797   -12.744     0.053
Ca              5.122e-002
   Ca+2                  4.071e-002  1.050e-002    -1.390    -1.979    -0.588
   CaOH+                 7.381e-003  5.427e-003    -2.132    -2.265    -0.134
   CaSO4                 2.552e-003  2.884e-003    -2.593    -2.540     0.053
   CaCO3                 5.784e-004  6.536e-004    -3.238    -3.185     0.053
   CaHCO3+               4.859e-008  3.347e-008    -7.313    -7.475    -0.162
   CaHSO4+               7.267e-015  5.343e-015   -14.139   -14.272    -0.134
Cl              4.218e-001
   Cl-                   4.218e-001  2.698e-001    -0.375    -0.569    -0.194
H(0)            1.253e-032
   H2                    6.265e-033  7.079e-033   -32.203   -32.150     0.053
K               4.419e-003
   K+                    4.356e-003  2.787e-003    -2.361    -2.555    -0.194
   KSO4-                 3.664e-005  2.694e-005    -4.436    -4.570    -0.134
   KOH                   2.662e-005  3.008e-005    -4.575    -4.522     0.053
Mg              5.724e-003
   MgOH+                 4.604e-003  3.385e-003    -2.337    -2.470    -0.134
   Mg+2                  1.026e-003  2.995e-004    -2.989    -3.524    -0.535
   MgSO4                 8.549e-005  9.659e-005    -4.068    -4.015     0.053
   MgCO3                 9.367e-006  1.058e-005    -5.028    -4.975     0.053
   MgHCO3+               1.190e-009  8.751e-010    -8.924    -9.058    -0.134
Na              3.716e-001
   Na+                   3.642e-001  2.580e-001    -0.439    -0.588    -0.150
   NaOH                  4.696e-003  5.306e-003    -2.328    -2.275     0.053
   NaSO4-                2.420e-003  1.779e-003    -2.616    -2.750    -0.134
   NaCO3-                2.420e-004  1.779e-004    -3.616    -3.750    -0.134
   NaHCO3                3.206e-008  3.623e-008    -7.494    -7.441     0.053
Np(4)           4.278e-014
   Np(OH)4               4.278e-014  4.834e-014   -13.369   -13.316     0.053
   Np+4                  0.000e+000  0.000e+000   -51.321   -53.458    -2.137
Np(5)           1.004e-010
   NpO2(OH)2-            6.885e-011  5.062e-011   -10.162   -10.296    -0.134
   NpO2OH                2.871e-011  3.244e-011   -10.542   -10.489     0.053
   NpO2+                 2.828e-012  2.079e-012   -11.549   -11.682    -0.134
O(0)            1.427e-028
   O2                    7.134e-029  8.061e-029   -28.147   -28.094     0.053
S(-2)           0.000e+000
   S-2                   0.000e+000  0.000e+000   -97.426   -98.102    -0.676
   HS-                   0.000e+000  0.000e+000   -97.482   -97.684    -0.202
   H2S                   0.000e+000  0.000e+000  -103.296  -103.242     0.053
S(6)            1.205e-002
   SO4-2                 6.849e-003  1.376e-003    -2.164    -2.861    -0.697
   CaSO4                 2.552e-003  2.884e-003    -2.593    -2.540     0.053
   NaSO4-                2.420e-003  1.779e-003    -2.616    -2.750    -0.134
   SrSO4                 1.081e-004  1.222e-004    -3.966    -3.913     0.053
   MgSO4                 8.549e-005  9.659e-005    -4.068    -4.015     0.053
   KSO4-                 3.664e-005  2.694e-005    -4.436    -4.570    -0.134
   HSO4-                 5.754e-014  4.230e-014   -13.240   -13.374    -0.134
   CaHSO4+               7.267e-015  5.343e-015   -14.139   -14.272    -0.134
   AlSO4+                3.659e-033  2.690e-033   -32.437   -32.570    -0.134
   Al(SO4)2-             1.592e-034  1.170e-034   -33.798   -33.932    -0.134
   AlHSO4+2              0.000e+000  0.000e+000   -45.588   -46.122    -0.534
Si              2.009e-003
   H3SiO4-               1.302e-003  9.573e-004    -2.885    -3.019    -0.134
   H2SiO4-2              7.047e-004  2.059e-004    -3.152    -3.686    -0.534
   H4SiO4                1.817e-006  2.053e-006    -5.741    -5.688     0.053
Sr              2.009e-003
   Sr+2                  1.784e-003  4.553e-004    -2.749    -3.342    -0.593
   SrSO4                 1.081e-004  1.222e-004    -3.966    -3.913     0.053
   SrOH+                 1.073e-004  7.269e-005    -3.970    -4.139    -0.169
   SrCO3                 9.527e-006  1.077e-005    -5.021    -4.968     0.053
   SrHCO3+               2.525e-009  1.739e-009    -8.598    -8.760    -0.162

------------------------------Saturation indices-------------------------------

	Phase               SI log IAP  log KT

	Al(OH)3(a)       -6.53    4.27   10.80  Al(OH)3
	Albite           -5.50  -23.50  -18.00  NaAlSi3O8
	Alunite         -31.55  -32.95   -1.40  KAl3(SO4)2(OH)6
	Anhydrite        -0.48   -4.84   -4.36  CaSO4
	Anorthite        -5.39  -25.10  -19.71  CaAl2Si2O8
	Aragonite         1.93   -6.41   -8.34  CaCO3
	Ca-Montmorillonite -14.84  -59.87  -45.03  Ca0.165Al2.33Si3.67O10(OH)2
	Calcite           2.07   -6.41   -8.48  CaCO3
	Celestite         0.43   -6.20   -6.63  SrSO4
	CH4(g)         -101.48 -104.34   -2.86  CH4
	Chalcedony       -2.12   -5.67   -3.55  SiO2
	Chlorite(14A)    30.48   98.86   68.38  Mg5Al2Si3O10(OH)8
	Chrysotile       20.85   53.05   32.20  Mg3Si2O5(OH)4
	CO2(g)          -11.28  -12.74   -1.47  CO2
	Dolomite          2.72  -14.37  -17.09  CaMg(CO3)2
	Fix_pe           -2.00   -2.00    0.00  e-
	Gibbsite         -3.84    4.27    8.11  Al(OH)3
	Gypsum           -0.27   -4.85   -4.58  CaSO4:2H2O
	H2(g)           -29.00  -32.15   -3.15  H2
	H2O(g)           -1.52   -0.01    1.51  H2O
	H2S(g)         -102.25 -103.24   -1.00  H2S
	Halite           -2.74   -1.16    1.58  NaCl
	Illite          -10.55  -50.82  -40.27  K0.6Mg0.25Al2.3Si3.5O10(OH)2
	K-feldspar       -4.89  -25.46  -20.57  KAlSi3O8
	K-mica           -6.95    5.76   12.70  KAl3Si3O10(OH)2
	Kaolinite       -10.23   -2.80    7.43  Al2Si2O5(OH)4
	Neptunium(IV)hydroxide  -4.23   -3.49    0.74  Np(OH)4
	Neptunium(IV)oxide  -0.79   -3.47   -2.68  NpO2
	Neptunium(IV)oxide(am)  -5.00   -3.47    1.53  NpO2
	O2(g)           -25.20  -28.09   -2.89  O2
	Quartz           -1.69   -5.67   -3.98  SiO2
	Sepiolite        10.13   25.89   15.76  Mg2Si3O7.5OH:3H2O
	Sepiolite(d)      7.23   25.89   18.66  Mg2Si3O7.5OH:3H2O
	SiO2(a)          -2.96   -5.67   -2.71  SiO2
	Strontianite      1.50   -7.77   -9.27  SrCO3
	Sulfur          -79.12  -74.24    4.88  S
	Talc             20.31   41.71   21.40  Mg3Si4O10(OH)2

------------------
End of simulation.
------------------

-------------------------------------
Reading input data for simulation 13.
-------------------------------------

	USE solution 1
	EQUILIBRIUM_PHASES 1
	Fix_pe -3  O2(g)
	END
-----------------------------------------
Beginning of batch-reaction calculations.
-----------------------------------------

Reaction step 1.

Using solution 1.	Reference Backfill water
Using pure phase assemblage 1.	

-------------------------------Phase assemblage--------------------------------

                                                      Moles in assemblage
Phase                  SI log IAP  log KT      Initial       Final       Delta

Fix_pe              -3.00   -3.00    0.00
	 O2                 is reactant     1.000e+001  1.000e+001  5.329e-015

-----------------------------Solution composition------------------------------

	Elements           Molality       Moles

	Al               1.707e-006  1.707e-006
	C                1.004e-003  1.004e-003
	Ca               5.122e-002  5.122e-002
	Cl               4.218e-001  4.218e-001
	K                4.419e-003  4.419e-003
	Mg               5.724e-003  5.724e-003
	Na               3.716e-001  3.716e-001
	Np               1.004e-010  1.004e-010
	S                1.205e-002  1.205e-002
	Si               2.009e-003  2.009e-003
	Sr               2.009e-003  2.009e-003

----------------------------Description of solution----------------------------

                                       pH  =  12.500      Charge balance
                                       pe  =   3.000      Adjusted to redox equilibrium
       Specific Conductance (uS/cm, 25 oC) = 48192
                          Density (g/cm3)  =   1.01714
                        Activity of water  =   0.984
                           Ionic strength  =  5.305e-001
                       Mass of water (kg)  =  1.000e+000
                 Total alkalinity (eq/kg)  =  7.115e-002
                       Total CO2 (mol/kg)  =  1.004e-003
                      Temperature (deg C)  =  25.000
                  Electrical balance (eq)  = -2.314e-002
 Percent error, 100*(Cat-|An|)/(Cat+|An|)  =  -2.41
                               Iterations  =   2
                                  Total H  = 1.110842e+002
                                  Total O  = 5.563190e+001

----------------------------Distribution of species----------------------------

                                                   Log       Log         Log 
   Species                 Molality    Activity  Molality  Activity     Gamma

   OH-                   4.961e-002  3.116e-002    -1.304    -1.506    -0.202
   H+                    4.147e-013  3.162e-013   -12.382   -12.500    -0.118
   H2O                   5.551e+001  9.844e-001     1.744    -0.007     0.000
Al              1.707e-006
   Al(OH)4-              1.707e-006  1.255e-006    -5.768    -5.901    -0.134
   Al(OH)3               1.893e-013  2.139e-013   -12.723   -12.670     0.053
   Al(OH)2+              6.344e-019  4.664e-019   -18.198   -18.331    -0.134
   AlOH+2                6.542e-026  1.912e-026   -25.184   -25.719    -0.534
   Al+3                  7.084e-033  6.182e-034   -32.150   -33.209    -1.059
   AlSO4+                3.659e-033  2.690e-033   -32.437   -32.570    -0.134
   Al(SO4)2-             1.592e-034  1.170e-034   -33.798   -33.932    -0.134
   AlHSO4+2              0.000e+000  0.000e+000   -45.588   -46.122    -0.534
C(-4)           0.000e+000
   CH4                   0.000e+000  0.000e+000  -112.393  -112.340     0.053
C(4)            1.004e-003
   CaCO3                 5.784e-004  6.536e-004    -3.238    -3.185     0.053
   NaCO3-                2.420e-004  1.779e-004    -3.616    -3.750    -0.134
   CO3-2                 1.645e-004  3.704e-005    -3.784    -4.431    -0.648
   SrCO3                 9.527e-006  1.077e-005    -5.021    -4.968     0.053
   MgCO3                 9.367e-006  1.058e-005    -5.028    -4.975     0.053
   HCO3-                 3.626e-007  2.497e-007    -6.441    -6.603    -0.162
   CaHCO3+               4.859e-008  3.347e-008    -7.313    -7.475    -0.162
   NaHCO3                3.206e-008  3.623e-008    -7.494    -7.441     0.053
   SrHCO3+               2.525e-009  1.739e-009    -8.598    -8.760    -0.162
   MgHCO3+               1.190e-009  8.751e-010    -8.924    -9.058    -0.134
   CO2                   1.596e-013  1.804e-013   -12.797   -12.744     0.053
Ca              5.122e-002
   Ca+2                  4.071e-002  1.050e-002    -1.390    -1.979    -0.588
   CaOH+                 7.381e-003  5.427e-003    -2.132    -2.265    -0.134
   CaSO4                 2.552e-003  2.884e-003    -2.593    -2.540     0.053
   CaCO3                 5.784e-004  6.536e-004    -3.238    -3.185     0.053
   CaHCO3+               4.859e-008  3.347e-008    -7.313    -7.475    -0.162
   CaHSO4+               7.267e-015  5.343e-015   -14.139   -14.272    -0.134
Cl              4.218e-001
   Cl-                   4.218e-001  2.698e-001    -0.375    -0.569    -0.194
H(0)            1.253e-034
   H2                    6.265e-035  7.079e-035   -34.203   -34.150     0.053
K               4.419e-003
   K+                    4.356e-003  2.787e-003    -2.361    -2.555    -0.194
   KSO4-                 3.664e-005  2.694e-005    -4.436    -4.570    -0.134
   KOH                   2.662e-005  3.008e-005    -4.575    -4.522     0.053
Mg              5.724e-003
   MgOH+                 4.604e-003  3.385e-003    -2.337    -2.470    -0.134
   Mg+2                  1.026e-003  2.995e-004    -2.989    -3.524    -0.535
   MgSO4                 8.549e-005  9.659e-005    -4.068    -4.015     0.053
   MgCO3                 9.367e-006  1.058e-005    -5.028    -4.975     0.053
   MgHCO3+               1.190e-009  8.751e-010    -8.924    -9.058    -0.134
Na              3.716e-001
   Na+                   3.642e-001  2.580e-001    -0.439    -0.588    -0.150
   NaOH                  4.696e-003  5.306e-003    -2.328    -2.275     0.053
   NaSO4-                2.420e-003  1.779e-003    -2.616    -2.750    -0.134
   NaCO3-                2.420e-004  1.779e-004    -3.616    -3.750    -0.134
   NaHCO3                3.206e-008  3.623e-008    -7.494    -7.441     0.053
Np(4)           4.280e-015
   Np(OH)4               4.280e-015  4.836e-015   -14.369   -14.316     0.053
   Np+4                  0.000e+000  0.000e+000   -52.321   -54.458    -2.137
Np(5)           1.004e-010
   NpO2(OH)2-            6.887e-011  5.064e-011   -10.162   -10.296    -0.134
   NpO2OH                2.872e-011  3.245e-011   -10.542   -10.489     0.053
   NpO2+                 2.829e-012  2.080e-012   -11.548   -11.682    -0.134
O(0)            1.427e-024
   O2                    7.134e-025  8.061e-025   -24.147   -24.094     0.053
S(-2)           0.000e+000
   S-2                   0.000e+000  0.000e+000  -105.426  -106.102    -0.676
   HS-                   0.000e+000  0.000e+000  -105.482  -105.684    -0.202
   H2S                   0.000e+000  0.000e+000  -111.296  -111.242     0.053
S(6)            1.205e-002
   SO4-2                 6.849e-003  1.376e-003    -2.164    -2.861    -0.697
   CaSO4                 2.552e-003  2.884e-003    -2.593    -2.540     0.053
   NaSO4-                2.420e-003  1.779e-003    -2.616    -2.750    -0.134
   SrSO4                 1.081e-004  1.222e-004    -3.966    -3.913     0.053
   MgSO4                 8.549e-005  9.659e-005    -4.068    -4.015     0.053
   KSO4-                 3.664e-005  2.694e-005    -4.436    -4.570    -0.134
   HSO4-                 5.754e-014  4.230e-014   -13.240   -13.374    -0.134
   CaHSO4+               7.267e-015  5.343e-015   -14.139   -14.272    -0.134
   AlSO4+                3.659e-033  2.690e-033   -32.437   -32.570    -0.134
   Al(SO4)2-             1.592e-034  1.170e-034   -33.798   -33.932    -0.134
   AlHSO4+2              0.000e+000  0.000e+000   -45.588   -46.122    -0.534
Si              2.009e-003
   H3SiO4-               1.302e-003  9.573e-004    -2.885    -3.019    -0.134
   H2SiO4-2              7.047e-004  2.059e-004    -3.152    -3.686    -0.534
   H4SiO4                1.817e-006  2.053e-006    -5.741    -5.688     0.053
Sr              2.009e-003
   Sr+2                  1.784e-003  4.553e-004    -2.749    -3.342    -0.593
   SrSO4                 1.081e-004  1.222e-004    -3.966    -3.913     0.053
   SrOH+                 1.073e-004  7.269e-005    -3.970    -4.139    -0.169
   SrCO3                 9.527e-006  1.077e-005    -5.021    -4.968     0.053
   SrHCO3+               2.525e-009  1.739e-009    -8.598    -8.760    -0.162

------------------------------Saturation indices-------------------------------

	Phase               SI log IAP  log KT

	Al(OH)3(a)       -6.53    4.27   10.80  Al(OH)3
	Albite           -5.50  -23.50  -18.00  NaAlSi3O8
	Alunite         -31.55  -32.95   -1.40  KAl3(SO4)2(OH)6
	Anhydrite        -0.48   -4.84   -4.36  CaSO4
	Anorthite        -5.39  -25.10  -19.71  CaAl2Si2O8
	Aragonite         1.93   -6.41   -8.34  CaCO3
	Ca-Montmorillonite -14.84  -59.87  -45.03  Ca0.165Al2.33Si3.67O10(OH)2
	Calcite           2.07   -6.41   -8.48  CaCO3
	Celestite         0.43   -6.20   -6.63  SrSO4
	CH4(g)         -109.48 -112.34   -2.86  CH4
	Chalcedony       -2.12   -5.67   -3.55  SiO2
	Chlorite(14A)    30.48   98.86   68.38  Mg5Al2Si3O10(OH)8
	Chrysotile       20.85   53.05   32.20  Mg3Si2O5(OH)4
	CO2(g)          -11.28  -12.74   -1.47  CO2
	Dolomite          2.72  -14.37  -17.09  CaMg(CO3)2
	Fix_pe           -3.00   -3.00    0.00  e-
	Gibbsite         -3.84    4.27    8.11  Al(OH)3
	Gypsum           -0.27   -4.85   -4.58  CaSO4:2H2O
	H2(g)           -31.00  -34.15   -3.15  H2
	H2O(g)           -1.52   -0.01    1.51  H2O
	H2S(g)         -110.25 -111.24   -1.00  H2S
	Halite           -2.74   -1.16    1.58  NaCl
	Illite          -10.55  -50.82  -40.27  K0.6Mg0.25Al2.3Si3.5O10(OH)2
	K-feldspar       -4.89  -25.46  -20.57  KAlSi3O8
	K-mica           -6.95    5.76   12.70  KAl3Si3O10(OH)2
	Kaolinite       -10.23   -2.80    7.43  Al2Si2O5(OH)4
	Neptunium(IV)hydroxide  -5.23   -4.49    0.74  Np(OH)4
	Neptunium(IV)oxide  -1.79   -4.47   -2.68  NpO2
	Neptunium(IV)oxide(am)  -6.00   -4.47    1.53  NpO2
	O2(g)           -21.20  -24.09   -2.89  O2
	Quartz           -1.69   -5.67   -3.98  SiO2
	Sepiolite        10.13   25.89   15.76  Mg2Si3O7.5OH:3H2O
	Sepiolite(d)      7.23   25.89   18.66  Mg2Si3O7.5OH:3H2O
	SiO2(a)          -2.96   -5.67   -2.71  SiO2
	Strontianite      1.50   -7.77   -9.27  SrCO3
	Sulfur          -85.12  -80.24    4.88  S
	Talc             20.31   41.71   21.40  Mg3Si4O10(OH)2

------------------
End of simulation.
------------------

-------------------------------------
Reading input data for simulation 14.
-------------------------------------

-----------
End of run.
-----------

