   Input file: fluorite
  Output file: fluorite.out
Database file: ../database/phreeqc.dat

------------------
Reading data base.
------------------

	SOLUTION_MASTER_SPECIES
	SOLUTION_SPECIES
	PHASES
	EXCHANGE_MASTER_SPECIES
	EXCHANGE_SPECIES
	SURFACE_MASTER_SPECIES
	SURFACE_SPECIES
	RATES
	END
------------------------------------
Reading input data for simulation 1.
------------------------------------

	DATABASE ../database/phreeqc.dat
	solution 1
	units ppm
	Ca 10
	 F 5.5
	end
-------------------------------------------
Beginning of initial solution calculations.
-------------------------------------------

Initial solution 1.	

-----------------------------Solution composition------------------------------

	Elements           Molality       Moles

	Ca               2.495e-004  2.495e-004
	F                2.895e-004  2.895e-004

----------------------------Description of solution----------------------------

                                       pH  =   7.000    
                                       pe  =   4.000    
       Specific Conductance (uS/cm, 25 oC) = 43
                          Density (g/cm3)  =   0.99707
                        Activity of water  =   1.000
                           Ionic strength  =  6.427e-004
                       Mass of water (kg)  =  1.000e+000
                 Total alkalinity (eq/kg)  = -4.152e-008
                    Total carbon (mol/kg)  =  0.000e+000
                       Total CO2 (mol/kg)  =  0.000e+000
                      Temperature (deg C)  =  25.000
                  Electrical balance (eq)  =  2.095e-004
 Percent error, 100*(Cat-|An|)/(Cat+|An|)  =  26.61
                               Iterations  =   3
                                  Total H  = 1.110124e+002
                                  Total O  = 5.550622e+001

----------------------------Distribution of species----------------------------

                                                   Log       Log         Log 
   Species                 Molality    Activity  Molality  Activity     Gamma

   OH-                   1.030e-007  1.001e-007    -6.987    -7.000    -0.013
   H+                    1.028e-007  1.000e-007    -6.988    -7.000    -0.012
   H2O                   5.551e+001  1.000e+000     1.744    -0.000     0.000
Ca              2.495e-004
   Ca+2                  2.489e-004  2.221e-004    -3.604    -3.653    -0.049
   CaF+                  5.589e-007  5.430e-007    -6.253    -6.265    -0.012
   CaOH+                 3.794e-010  3.687e-010    -9.421    -9.433    -0.012
F               2.895e-004
   F-                    2.889e-004  2.807e-004    -3.539    -3.552    -0.013
   CaF+                  5.589e-007  5.430e-007    -6.253    -6.265    -0.012
   HF                    4.209e-008  4.209e-008    -7.376    -7.376     0.000
   HF2-                  4.666e-011  4.533e-011   -10.331   -10.344    -0.012
H(0)            1.416e-025
   H2                    7.078e-026  7.079e-026   -25.150   -25.150     0.000
O(0)            0.000e+000
   O2                    0.000e+000  0.000e+000   -42.080   -42.080     0.000

------------------------------Saturation indices-------------------------------

	Phase               SI log IAP  log KT

	Fluorite         -0.16  -10.76  -10.60  CaF2
	H2(g)           -22.00  -25.15   -3.15  H2
	H2O(g)           -1.51   -0.00    1.51  H2O
	O2(g)           -39.19  -42.08   -2.89  O2

------------------
End of simulation.
------------------

------------------------------------
Reading input data for simulation 2.
------------------------------------

	knobs 
	use solution 1
	EQUILIBRIUM_PHASES 1
	Fluorite 0 Gypsum
	end
-----------------------------------------
Beginning of batch-reaction calculations.
-----------------------------------------

Reaction step 1.

WARNING: Maximum iterations exceeded, 100

WARNING: Numerical method failed with this set of convergence parameters.

WARNING: Trying smaller step size, pe step size 10, 5 ... 

WARNING: Maximum iterations exceeded, 200

WARNING: Numerical method failed with this set of convergence parameters.

WARNING: Trying reduced tolerance 1e-016 ...

WARNING: Maximum iterations exceeded, 200

WARNING: Numerical method failed with this set of convergence parameters.

WARNING: Trying increased tolerance 1e-014 ...

WARNING: Maximum iterations exceeded, 200

WARNING: Numerical method failed with this set of convergence parameters.

WARNING: Trying diagonal scaling ...

WARNING: Maximum iterations exceeded, 200

WARNING: Numerical method failed with this set of convergence parameters.

WARNING: Trying diagonal scaling and reduced tolerance 1e-016 ...

WARNING: Maximum iterations exceeded, 200

WARNING: Numerical method failed with this set of convergence parameters.

WARNING: Trying scaling pure_phase columns 1e-010 ...

WARNING: Maximum iterations exceeded, 200

WARNING: Numerical method failed with this set of convergence parameters.

WARNING: Trying scaling pure_phase columns and diagonal scale 1e-010 ...

WARNING: Maximum iterations exceeded, 200

WARNING: Numerical method failed with this set of convergence parameters.

WARNING: Trying increased scaling 1e-009 ...

WARNING: Maximum iterations exceeded, 200

WARNING: Numerical method failed with this set of convergence parameters.

WARNING: Skipping optimize equations for first 5 iterations ...

WARNING: Maximum iterations exceeded, 100

WARNING: Numerical method failed with this set of convergence parameters.

WARNING: Adding inequality to make concentrations greater than zero.

Using solution 1.	
Using pure phase assemblage 1.	

-------------------------------Phase assemblage--------------------------------

                                                      Moles in assemblage
Phase                  SI log IAP  log KT      Initial       Final       Delta

Fluorite             0.00  -10.60  -10.60
	 CaSO4:2H2O         is reactant     1.000e+001  1.000e+001 -1.376e-004

-----------------------------Solution composition------------------------------

	Elements           Molality       Moles

	Ca               3.871e-004  3.871e-004
	F                2.895e-004  2.895e-004
	S                1.376e-004  1.376e-004

----------------------------Description of solution----------------------------

                                       pH  =   7.001      Charge balance
                                       pe  =  10.881      Adjusted to redox equilibrium
       Specific Conductance (uS/cm, 25 oC) = 77
                          Density (g/cm3)  =   0.99709
                        Activity of water  =   1.000
                           Ionic strength  =  1.164e-003
                       Mass of water (kg)  =  1.000e+000
                 Total alkalinity (eq/kg)  = -4.152e-008
                    Total carbon (mol/kg)  =  0.000e+000
                       Total CO2 (mol/kg)  =  0.000e+000
                      Temperature (deg C)  =  25.000
                  Electrical balance (eq)  =  2.095e-004
 Percent error, 100*(Cat-|An|)/(Cat+|An|)  =  16.02
                               Iterations  =  26
                                  Total H  = 1.110130e+002
                                  Total O  = 5.550704e+001

----------------------------Distribution of species----------------------------

                                                   Log       Log         Log 
   Species                 Molality    Activity  Molality  Activity     Gamma

   OH-                   1.042e-007  1.003e-007    -6.982    -6.999    -0.017
   H+                    1.035e-007  9.984e-008    -6.985    -7.001    -0.016
   H2O                   5.551e+001  1.000e+000     1.744    -0.000     0.000
Ca              3.871e-004
   Ca+2                  3.790e-004  3.259e-004    -3.421    -3.487    -0.066
   CaSO4                 7.280e-006  7.282e-006    -5.138    -5.138     0.000
   CaF+                  8.190e-007  7.883e-007    -6.087    -6.103    -0.017
   CaOH+                 5.628e-010  5.417e-010    -9.250    -9.266    -0.017
   CaHSO4+               4.425e-012  4.259e-012   -11.354   -11.371    -0.017
F               2.895e-004
   F-                    2.886e-004  2.777e-004    -3.540    -3.556    -0.017
   CaF+                  8.190e-007  7.883e-007    -6.087    -6.103    -0.017
   HF                    4.157e-008  4.159e-008    -7.381    -7.381     0.000
   HF2-                  4.605e-011  4.432e-011   -10.337   -10.353    -0.017
H(0)            2.436e-039
   H2                    1.218e-039  1.218e-039   -38.914   -38.914     0.000
O(0)            5.615e-015
   O2                    2.807e-015  2.808e-015   -14.552   -14.552     0.000
S(-2)           0.000e+000
   HS-                   0.000e+000  0.000e+000  -120.342  -120.358    -0.017
   H2S                   0.000e+000  0.000e+000  -120.417  -120.417     0.000
   S-2                   0.000e+000  0.000e+000  -126.210  -126.276    -0.066
S(6)            1.376e-004
   SO4-2                 1.303e-004  1.120e-004    -3.885    -3.951    -0.066
   CaSO4                 7.280e-006  7.282e-006    -5.138    -5.138     0.000
   HSO4-                 1.129e-009  1.087e-009    -8.947    -8.964    -0.017
   CaHSO4+               4.425e-012  4.259e-012   -11.354   -11.371    -0.017

------------------------------Saturation indices-------------------------------

	Phase               SI log IAP  log KT

	Anhydrite        -3.08   -7.44   -4.36  CaSO4
	Fluorite          0.00  -10.60  -10.60  CaF2
	Gypsum           -2.86   -7.44   -4.58  CaSO4:2H2O
	H2(g)           -35.76  -38.91   -3.15  H2
	H2O(g)           -1.51   -0.00    1.51  H2O
	H2S(g)         -119.42 -120.42   -1.00  H2S
	O2(g)           -11.66  -14.55   -2.89  O2
	Sulfur          -89.54  -84.65    4.88  S

------------------
End of simulation.
------------------

------------------------------------
Reading input data for simulation 3.
------------------------------------

-----------
End of run.
-----------

