   Input file: gas
  Output file: gas.out
Database file: ../database/phreeqc.dat

------------------
Reading data base.
------------------

	SOLUTION_MASTER_SPECIES
	SOLUTION_SPECIES
	PHASES
	EXCHANGE_MASTER_SPECIES
	EXCHANGE_SPECIES
	SURFACE_MASTER_SPECIES
	SURFACE_SPECIES
	RATES
	END
------------------------------------
Reading input data for simulation 1.
------------------------------------

	DATABASE ../database/phreeqc.dat
	knobs
		logfile
	PRINT
		status false
	SELECTED_OUTPUT
		file 	gas.flat
		totals
			C C(4) C(-4) N N(5) N(3) N(0) N(-3)
		si	
			CO2(g) CH4(g) O2(g) N2(g)
		gases	CO2(g) CH4(g) O2(g) N2(g)
	SOLUTION 1
		units mmol/L
		pH	4.0
		temp 	25.
		C(4)	1.0	CO2(g)	-3.5
		N(5)	3.0
	REACTION 1
		CH2O	1.0
		0.0 1.0 2.0 3.0 4.0 10.0 100. 300. mmol
	PURE_PHASES 1
		Calcite
		Dolomite
	GAS_PHASE 1
		pressure	 	1.0
		volume		1.0
		temp		25.0
		CH4(g)          0.000001
		CO2(g)		0.000316
		O2(g)		0.2
		N2(g)		0.78
	END
-------------------------------------------
Beginning of initial solution calculations.
-------------------------------------------

Initial solution 1.	

-----------------------------Solution composition------------------------------

	Elements           Molality       Moles

	C(4)             1.081e-005  1.081e-005  Equilibrium with CO2(g)
	N(5)             3.000e-003  3.000e-003

----------------------------Description of solution----------------------------

                                       pH  =   4.000    
                                       pe  =   4.000    
       Specific Conductance (uS/cm, 25 oC) = 244
                          Density (g/cm3)  =   0.99700
                        Activity of water  =   1.000
                           Ionic strength  =  1.552e-003
                       Mass of water (kg)  =  1.000e+000
                 Total alkalinity (eq/kg)  = -1.042e-004
                       Total CO2 (mol/kg)  =  1.081e-005
                      Temperature (deg C)  =  25.000
                  Electrical balance (eq)  = -2.896e-003
 Percent error, 100*(Cat-|An|)/(Cat+|An|)  = -93.29
                               Iterations  =   3
                                  Total H  = 1.110125e+002
                                  Total O  = 5.551524e+001

----------------------------Distribution of species----------------------------

                                                   Log       Log         Log 
   Species                 Molality    Activity  Molality  Activity     Gamma

   H+                    1.042e-004  1.000e-004    -3.982    -4.000    -0.018
   OH-                   1.046e-010  1.001e-010    -9.980   -10.000    -0.019
   H2O                   5.551e+001  9.999e-001     1.744    -0.000     0.000
C(4)            1.081e-005
   CO2                   1.076e-005  1.077e-005    -4.968    -4.968     0.000
   HCO3-                 5.000e-008  4.788e-008    -7.301    -7.320    -0.019
   CO3-2                 2.669e-014  2.246e-014   -13.574   -13.649    -0.075
H(0)            1.415e-019
   H2                    7.077e-020  7.079e-020   -19.150   -19.150     0.000
N(5)            3.000e-003
   NO3-                  3.000e-003  2.870e-003    -2.523    -2.542    -0.019
O(0)            0.000e+000
   O2                    0.000e+000  0.000e+000   -54.080   -54.080     0.000

------------------------------Saturation indices-------------------------------

	Phase               SI log IAP  log KT

	CO2(g)           -3.50   -4.97   -1.47  CO2
	H2(g)           -16.00  -19.15   -3.15  H2
	H2O(g)           -1.51   -0.00    1.51  H2O
	O2(g)           -51.19  -54.08   -2.89  O2

-----------------------------------------
Beginning of batch-reaction calculations.
-----------------------------------------

Reaction step 1.

Using solution 1.	
Using pure phase assemblage 1.	
Using gas phase 1.	
Using reaction 1.	

Reaction 1.	Irreversible reaction defined in simulation 1.

	 0.000e+000 moles of the following reaction have been added:

	                 Relative
	Reactant            moles

	CH2O                 1.00000

	                 Relative
	Element             moles
	C                    1.00000
	H                    2.00000
	O                    1.00000

-----------------------------------Gas phase-----------------------------------


Total pressure:   1.0000   atmospheres
    Gas volume:  7.01e-001 liters

                                                        Moles in gas
                                            ----------------------------------
Component                log P           P     Initial       Final       Delta

CH4(g)                 -129.58  2.626e-130  4.087e-008  0.000e+000 -4.087e-008
CO2(g)                   -1.68  2.071e-002  1.292e-005  5.936e-004  5.807e-004
N2(g)                    -0.01  9.793e-001  3.188e-002  2.808e-002 -3.806e-003
O2(g)                    -6.35  4.485e-007  8.175e-003  1.286e-008 -8.175e-003

-------------------------------Phase assemblage--------------------------------

                                                      Moles in assemblage
Phase                  SI log IAP  log KT      Initial       Final       Delta

Calcite              0.00   -8.48   -8.48   1.000e+001  9.999e+000 -8.359e-004
Dolomite             0.00  -17.09  -17.09   1.000e+001  9.998e+000 -2.273e-003

-----------------------------Solution composition------------------------------

	Elements           Molality       Moles

	C                4.813e-003  4.813e-003
	Ca               3.109e-003  3.109e-003
	Mg               2.274e-003  2.273e-003
	N                1.061e-002  1.061e-002

----------------------------Description of solution----------------------------

                                       pH  =   7.046      Charge balance
                                       pe  =  12.164      Adjusted to redox equilibrium
       Specific Conductance (uS/cm, 25 oC) = 1273
                          Density (g/cm3)  =   0.99734
                        Activity of water  =   1.000
                           Ionic strength  =  1.727e-002
                       Mass of water (kg)  =  1.000e+000
                 Total alkalinity (eq/kg)  =  4.122e-003
                       Total CO2 (mol/kg)  =  4.813e-003
                      Temperature (deg C)  =  25.000
                  Electrical balance (eq)  = -2.896e-003
 Percent error, 100*(Cat-|An|)/(Cat+|An|)  = -12.02
                               Iterations  =  26
                                  Total H  = 1.110125e+002
                                  Total O  = 5.554658e+001

----------------------------Distribution of species----------------------------

                                                   Log       Log         Log 
   Species                 Molality    Activity  Molality  Activity     Gamma

   OH-                   1.271e-007  1.112e-007    -6.896    -6.954    -0.058
   H+                    1.006e-007  9.001e-008    -6.997    -7.046    -0.048
   H2O                   5.551e+001  9.997e-001     1.744    -0.000     0.000
C(-4)           0.000e+000
   CH4                   0.000e+000  0.000e+000  -132.442  -132.441     0.002
C(4)            4.813e-003
   HCO3-                 3.945e-003  3.482e-003    -2.404    -2.458    -0.054
   CO2                   7.021e-004  7.049e-004    -3.154    -3.152     0.002
   CaHCO3+               9.192e-005  8.112e-005    -4.037    -4.091    -0.054
   MgHCO3+               6.276e-005  5.511e-005    -4.202    -4.259    -0.057
   CaCO3                 5.543e-006  5.565e-006    -5.256    -5.255     0.002
   CO3-2                 2.991e-006  1.814e-006    -5.524    -5.741    -0.217
   MgCO3                 2.332e-006  2.341e-006    -5.632    -5.631     0.002
Ca              3.109e-003
   Ca+2                  3.012e-003  1.826e-003    -2.521    -2.738    -0.217
   CaHCO3+               9.192e-005  8.112e-005    -4.037    -4.091    -0.054
   CaCO3                 5.543e-006  5.565e-006    -5.256    -5.255     0.002
   CaOH+                 3.833e-009  3.366e-009    -8.416    -8.473    -0.057
H(0)            0.000e+000
   H2                    0.000e+000  0.000e+000   -41.572   -41.570     0.002
Mg              2.274e-003
   Mg+2                  2.208e-003  1.353e-003    -2.656    -2.869    -0.213
   MgHCO3+               6.276e-005  5.511e-005    -4.202    -4.259    -0.057
   MgCO3                 2.332e-006  2.341e-006    -5.632    -5.631     0.002
   MgOH+                 6.212e-008  5.454e-008    -7.207    -7.263    -0.057
N(-3)           0.000e+000
   NH4+                  0.000e+000  0.000e+000   -50.713   -50.773    -0.060
   NH3                   0.000e+000  0.000e+000   -52.973   -52.972     0.002
N(0)            1.072e-003
   N2                    5.360e-004  5.382e-004    -3.271    -3.269     0.002
N(3)            1.349e-012
   NO2-                  1.349e-012  1.177e-012   -11.870   -11.929    -0.059
N(5)            9.540e-003
   NO3-                  9.540e-003  8.323e-003    -2.020    -2.080    -0.059
O(0)            1.145e-009
   O2                    5.723e-010  5.746e-010    -9.242    -9.241     0.002

------------------------------Saturation indices-------------------------------

	Phase               SI log IAP  log KT

	Aragonite        -0.14   -8.48   -8.34  CaCO3
	Calcite           0.00   -8.48   -8.48  CaCO3
	CH4(g)         -129.58 -132.44   -2.86  CH4
	CO2(g)           -1.68   -3.15   -1.47  CO2
	Dolomite          0.00  -17.09  -17.09  CaMg(CO3)2
	H2(g)           -38.42  -41.57   -3.15  H2
	H2O(g)           -1.51   -0.00    1.51  H2O
	N2(g)            -0.01   -3.27   -3.26  N2
	NH3(g)          -54.74  -52.97    1.77  NH3
	O2(g)            -6.35   -9.24   -2.89  O2

Reaction step 2.

Using solution 1.	
Using pure phase assemblage 1.	
Using gas phase 1.	
Using reaction 1.	

Reaction 1.	Irreversible reaction defined in simulation 1.

	 1.000e-003 moles of the following reaction have been added:

	                 Relative
	Reactant            moles

	CH2O                 1.00000

	                 Relative
	Element             moles
	C                    1.00000
	H                    2.00000
	O                    1.00000

-----------------------------------Gas phase-----------------------------------


Total pressure:   1.0000   atmospheres
    Gas volume:  7.15e-001 liters

                                                        Moles in gas
                                            ----------------------------------
Component                log P           P     Initial       Final       Delta

CH4(g)                 -129.49  3.200e-130  4.087e-008  0.000e+000 -4.087e-008
CO2(g)                   -1.59  2.585e-002  1.292e-005  7.556e-004  7.427e-004
N2(g)                    -0.01  9.742e-001  3.188e-002  2.848e-002 -3.403e-003
O2(g)                    -6.34  4.540e-007  8.175e-003  1.327e-008 -8.175e-003

-------------------------------Phase assemblage--------------------------------

                                                      Moles in assemblage
Phase                  SI log IAP  log KT      Initial       Final       Delta

Calcite              0.00   -8.48   -8.48   1.000e+001  9.999e+000 -8.149e-004
Dolomite             0.00  -17.09  -17.09   1.000e+001  9.998e+000 -2.216e-003

-----------------------------Solution composition------------------------------

	Elements           Molality       Moles

	C                5.515e-003  5.515e-003
	Ca               3.031e-003  3.031e-003
	Mg               2.216e-003  2.216e-003
	N                9.807e-003  9.806e-003

----------------------------Description of solution----------------------------

                                       pH  =   7.003      Charge balance
                                       pe  =  12.208      Adjusted to redox equilibrium
       Specific Conductance (uS/cm, 25 oC) = 1229
                          Density (g/cm3)  =   0.99737
                        Activity of water  =   1.000
                           Ionic strength  =  1.683e-002
                       Mass of water (kg)  =  1.000e+000
                 Total alkalinity (eq/kg)  =  4.649e-003
                       Total CO2 (mol/kg)  =  5.515e-003
                      Temperature (deg C)  =  25.000
                  Electrical balance (eq)  = -2.896e-003
 Percent error, 100*(Cat-|An|)/(Cat+|An|)  = -12.32
                               Iterations  =  22
                                  Total H  = 1.110145e+002
                                  Total O  = 5.554684e+001

----------------------------Distribution of species----------------------------

                                                   Log       Log         Log 
   Species                 Molality    Activity  Molality  Activity     Gamma

   OH-                   1.150e-007  1.007e-007    -6.939    -6.997    -0.057
   H+                    1.109e-007  9.935e-008    -6.955    -7.003    -0.048
   H2O                   5.551e+001  9.997e-001     1.744    -0.000     0.000
C(-4)           0.000e+000
   CH4                   0.000e+000  0.000e+000  -132.357  -132.355     0.002
C(4)            5.515e-003
   HCO3-                 4.457e-003  3.938e-003    -2.351    -2.405    -0.054
   CO2                   8.766e-004  8.800e-004    -3.057    -3.056     0.002
   CaHCO3+               1.013e-004  8.953e-005    -3.994    -4.048    -0.054
   MgHCO3+               6.918e-005  6.082e-005    -4.160    -4.216    -0.056
   CaCO3                 5.543e-006  5.565e-006    -5.256    -5.255     0.002
   CO3-2                 3.049e-006  1.859e-006    -5.516    -5.731    -0.215
   MgCO3                 2.332e-006  2.341e-006    -5.632    -5.631     0.002
Ca              3.031e-003
   Ca+2                  2.924e-003  1.782e-003    -2.534    -2.749    -0.215
   CaHCO3+               1.013e-004  8.953e-005    -3.994    -4.048    -0.054
   CaCO3                 5.543e-006  5.565e-006    -5.256    -5.255     0.002
   CaOH+                 3.384e-009  2.976e-009    -8.471    -8.526    -0.056
H(0)            0.000e+000
   H2                    0.000e+000  0.000e+000   -41.574   -41.572     0.002
Mg              2.216e-003
   Mg+2                  2.144e-003  1.320e-003    -2.669    -2.879    -0.211
   MgHCO3+               6.918e-005  6.082e-005    -4.160    -4.216    -0.056
   MgCO3                 2.332e-006  2.341e-006    -5.632    -5.631     0.002
   MgOH+                 5.485e-008  4.822e-008    -7.261    -7.317    -0.056
N(-3)           0.000e+000
   NH4+                  0.000e+000  0.000e+000   -50.676   -50.735    -0.060
   NH3                   0.000e+000  0.000e+000   -52.978   -52.977     0.002
N(0)            1.067e-003
   N2                    5.333e-004  5.353e-004    -3.273    -3.271     0.002
N(3)            1.228e-012
   NO2-                  1.228e-012  1.073e-012   -11.911   -11.969    -0.059
N(5)            8.740e-003
   NO3-                  8.740e-003  7.637e-003    -2.058    -2.117    -0.059
O(0)            1.159e-009
   O2                    5.794e-010  5.817e-010    -9.237    -9.235     0.002

------------------------------Saturation indices-------------------------------

	Phase               SI log IAP  log KT

	Aragonite        -0.14   -8.48   -8.34  CaCO3
	Calcite           0.00   -8.48   -8.48  CaCO3
	CH4(g)         -129.49 -132.35   -2.86  CH4
	CO2(g)           -1.59   -3.06   -1.47  CO2
	Dolomite          0.00  -17.09  -17.09  CaMg(CO3)2
	H2(g)           -38.42  -41.57   -3.15  H2
	H2O(g)           -1.51   -0.00    1.51  H2O
	N2(g)            -0.01   -3.27   -3.26  N2
	NH3(g)          -54.75  -52.98    1.77  NH3
	O2(g)            -6.34   -9.24   -2.89  O2

Reaction step 3.

Using solution 1.	
Using pure phase assemblage 1.	
Using gas phase 1.	
Using reaction 1.	

Reaction 1.	Irreversible reaction defined in simulation 1.

	 2.000e-003 moles of the following reaction have been added:

	                 Relative
	Reactant            moles

	CH2O                 1.00000

	                 Relative
	Element             moles
	C                    1.00000
	H                    2.00000
	O                    1.00000

-----------------------------------Gas phase-----------------------------------


Total pressure:   1.0000   atmospheres
    Gas volume:  7.29e-001 liters

                                                        Moles in gas
                                            ----------------------------------
Component                log P           P     Initial       Final       Delta

CH4(g)                 -129.41  3.928e-130  4.087e-008  0.000e+000 -4.087e-008
CO2(g)                   -1.51  3.108e-002  1.292e-005  9.264e-004  9.135e-004
N2(g)                    -0.01  9.689e-001  3.188e-002  2.888e-002 -3.000e-003
O2(g)                    -6.35  4.493e-007  8.175e-003  1.339e-008 -8.175e-003

-------------------------------Phase assemblage--------------------------------

                                                      Moles in assemblage
Phase                  SI log IAP  log KT      Initial       Final       Delta

Calcite              0.00   -8.48   -8.48   1.000e+001  9.999e+000 -7.920e-004
Dolomite             0.00  -17.09  -17.09   1.000e+001  9.998e+000 -2.153e-003

-----------------------------Solution composition------------------------------

	Elements           Molality       Moles

	C                6.196e-003  6.195e-003
	Ca               2.945e-003  2.945e-003
	Mg               2.153e-003  2.153e-003
	N                9.001e-003  9.001e-003

----------------------------Description of solution----------------------------

                                       pH  =   6.969      Charge balance
                                       pe  =  12.241      Adjusted to redox equilibrium
       Specific Conductance (uS/cm, 25 oC) = 1184
                          Density (g/cm3)  =   0.99739
                        Activity of water  =   1.000
                           Ionic strength  =  1.635e-002
                       Mass of water (kg)  =  1.000e+000
                 Total alkalinity (eq/kg)  =  5.152e-003
                       Total CO2 (mol/kg)  =  6.196e-003
                      Temperature (deg C)  =  25.000
                  Electrical balance (eq)  = -2.896e-003
 Percent error, 100*(Cat-|An|)/(Cat+|An|)  = -12.65
                               Iterations  =  22
                                  Total H  = 1.110165e+002
                                  Total O  = 5.554706e+001

----------------------------Distribution of species----------------------------

                                                   Log       Log         Log 
   Species                 Molality    Activity  Molality  Activity     Gamma

   H+                    1.198e-007  1.075e-007    -6.921    -6.969    -0.047
   OH-                   1.061e-007  9.311e-008    -6.974    -7.031    -0.057
   H2O                   5.551e+001  9.997e-001     1.744    -0.000     0.000
C(-4)           0.000e+000
   CH4                   0.000e+000  0.000e+000  -132.267  -132.266     0.002
C(4)            6.196e-003
   HCO3-                 4.946e-003  4.377e-003    -2.306    -2.359    -0.053
   CO2                   1.054e-003  1.058e-003    -2.977    -2.975     0.002
   CaHCO3+               1.095e-004  9.686e-005    -3.961    -4.014    -0.053
   MgHCO3+               7.473e-005  6.580e-005    -4.127    -4.182    -0.055
   CaCO3                 5.544e-006  5.565e-006    -5.256    -5.255     0.002
   CO3-2                 3.114e-006  1.910e-006    -5.507    -5.719    -0.212
   MgCO3                 2.333e-006  2.341e-006    -5.632    -5.631     0.002
Ca              2.945e-003
   Ca+2                  2.830e-003  1.735e-003    -2.548    -2.761    -0.213
   CaHCO3+               1.095e-004  9.686e-005    -3.961    -4.014    -0.053
   CaCO3                 5.544e-006  5.565e-006    -5.256    -5.255     0.002
   CaOH+                 3.040e-009  2.677e-009    -8.517    -8.572    -0.055
H(0)            0.000e+000
   H2                    0.000e+000  0.000e+000   -41.572   -41.570     0.002
Mg              2.153e-003
   Mg+2                  2.076e-003  1.285e-003    -2.683    -2.891    -0.208
   MgHCO3+               7.473e-005  6.580e-005    -4.127    -4.182    -0.055
   MgCO3                 2.333e-006  2.341e-006    -5.632    -5.631     0.002
   MgOH+                 4.927e-008  4.339e-008    -7.307    -7.363    -0.055
N(-3)           0.000e+000
   NH4+                  0.000e+000  0.000e+000   -50.640   -50.699    -0.059
   NH3                   0.000e+000  0.000e+000   -52.976   -52.974     0.002
N(0)            1.061e-003
   N2                    5.305e-004  5.325e-004    -3.275    -3.274     0.002
N(3)            1.121e-012
   NO2-                  1.121e-012  9.815e-013   -11.950   -12.008    -0.058
N(5)            7.940e-003
   NO3-                  7.940e-003  6.950e-003    -2.100    -2.158    -0.058
O(0)            1.147e-009
   O2                    5.735e-010  5.757e-010    -9.241    -9.240     0.002

------------------------------Saturation indices-------------------------------

	Phase               SI log IAP  log KT

	Aragonite        -0.14   -8.48   -8.34  CaCO3
	Calcite           0.00   -8.48   -8.48  CaCO3
	CH4(g)         -129.41 -132.27   -2.86  CH4
	CO2(g)           -1.51   -2.98   -1.47  CO2
	Dolomite          0.00  -17.09  -17.09  CaMg(CO3)2
	H2(g)           -38.42  -41.57   -3.15  H2
	H2O(g)           -1.51   -0.00    1.51  H2O
	N2(g)            -0.01   -3.27   -3.26  N2
	NH3(g)          -54.74  -52.97    1.77  NH3
	O2(g)            -6.35   -9.24   -2.89  O2

Reaction step 4.

Using solution 1.	
Using pure phase assemblage 1.	
Using gas phase 1.	
Using reaction 1.	

Reaction 1.	Irreversible reaction defined in simulation 1.

	 3.000e-003 moles of the following reaction have been added:

	                 Relative
	Reactant            moles

	CH2O                 1.00000

	                 Relative
	Element             moles
	C                    1.00000
	H                    2.00000
	O                    1.00000

-----------------------------------Gas phase-----------------------------------


Total pressure:   1.0000   atmospheres
    Gas volume:  7.43e-001 liters

                                                        Moles in gas
                                            ----------------------------------
Component                log P           P     Initial       Final       Delta

CH4(g)                 -129.31  4.881e-130  4.087e-008  0.000e+000 -4.087e-008
CO2(g)                   -1.44  3.635e-002  1.292e-005  1.105e-003  1.092e-003
N2(g)                    -0.02  9.636e-001  3.188e-002  2.928e-002 -2.597e-003
O2(g)                    -6.36  4.359e-007  8.175e-003  1.325e-008 -8.175e-003

-------------------------------Phase assemblage--------------------------------

                                                      Moles in assemblage
Phase                  SI log IAP  log KT      Initial       Final       Delta

Calcite              0.00   -8.48   -8.48   1.000e+001  9.999e+000 -7.677e-004
Dolomite             0.00  -17.09  -17.09   1.000e+001  9.998e+000 -2.087e-003

-----------------------------Solution composition------------------------------

	Elements           Molality       Moles

	C                6.860e-003  6.860e-003
	Ca               2.854e-003  2.854e-003
	Mg               2.087e-003  2.087e-003
	N                8.195e-003  8.195e-003

----------------------------Description of solution----------------------------

                                       pH  =   6.941      Charge balance
                                       pe  =  12.266      Adjusted to redox equilibrium
       Specific Conductance (uS/cm, 25 oC) = 1137
                          Density (g/cm3)  =   0.99741
                        Activity of water  =   1.000
                           Ionic strength  =  1.586e-002
                       Mass of water (kg)  =  1.000e+000
                 Total alkalinity (eq/kg)  =  5.638e-003
                       Total CO2 (mol/kg)  =  6.860e-003
                      Temperature (deg C)  =  25.000
                  Electrical balance (eq)  = -2.896e-003
 Percent error, 100*(Cat-|An|)/(Cat+|An|)  = -13.02
                               Iterations  =  25
                                  Total H  = 1.110185e+002
                                  Total O  = 5.554723e+001

----------------------------Distribution of species----------------------------

                                                   Log       Log         Log 
   Species                 Molality    Activity  Molality  Activity     Gamma

   H+                    1.276e-007  1.146e-007    -6.894    -6.941    -0.047
   OH-                   9.938e-008  8.735e-008    -7.003    -7.059    -0.056
   H2O                   5.551e+001  9.997e-001     1.744    -0.000     0.000
C(-4)           0.000e+000
   CH4                   0.000e+000  0.000e+000  -132.173  -132.171     0.002
C(4)            6.860e-003
   HCO3-                 5.420e-003  4.803e-003    -2.266    -2.318    -0.052
   CO2                   1.233e-003  1.238e-003    -2.909    -2.907     0.002
   CaHCO3+               1.165e-004  1.032e-004    -3.934    -3.986    -0.052
   MgHCO3+               7.952e-005  7.014e-005    -4.100    -4.154    -0.055
   CaCO3                 5.545e-006  5.565e-006    -5.256    -5.255     0.002
   CO3-2                 3.187e-006  1.966e-006    -5.497    -5.706    -0.210
   MgCO3                 2.333e-006  2.341e-006    -5.632    -5.631     0.002
Ca              2.854e-003
   Ca+2                  2.732e-003  1.685e-003    -2.563    -2.773    -0.210
   CaHCO3+               1.165e-004  1.032e-004    -3.934    -3.986    -0.052
   CaCO3                 5.545e-006  5.565e-006    -5.256    -5.255     0.002
   CaOH+                 2.766e-009  2.440e-009    -8.558    -8.613    -0.055
H(0)            0.000e+000
   H2                    0.000e+000  0.000e+000   -41.565   -41.564     0.002
Mg              2.087e-003
   Mg+2                  2.005e-003  1.248e-003    -2.698    -2.904    -0.206
   MgHCO3+               7.952e-005  7.014e-005    -4.100    -4.154    -0.055
   MgCO3                 2.333e-006  2.341e-006    -5.632    -5.631     0.002
   MgOH+                 4.483e-008  3.954e-008    -7.348    -7.403    -0.055
N(-3)           0.000e+000
   NH4+                  0.000e+000  0.000e+000   -50.604   -50.662    -0.058
   NH3                   0.000e+000  0.000e+000   -52.967   -52.966     0.002
N(0)            1.055e-003
   N2                    5.276e-004  5.296e-004    -3.278    -3.276     0.002
N(3)            1.024e-012
   NO2-                  1.024e-012  8.977e-013   -11.990   -12.047    -0.057
N(5)            7.140e-003
   NO3-                  7.140e-003  6.261e-003    -2.146    -2.203    -0.057
O(0)            1.113e-009
   O2                    5.565e-010  5.585e-010    -9.255    -9.253     0.002

------------------------------Saturation indices-------------------------------

	Phase               SI log IAP  log KT

	Aragonite        -0.14   -8.48   -8.34  CaCO3
	Calcite           0.00   -8.48   -8.48  CaCO3
	CH4(g)         -129.31 -132.17   -2.86  CH4
	CO2(g)           -1.44   -2.91   -1.47  CO2
	Dolomite          0.00  -17.09  -17.09  CaMg(CO3)2
	H2(g)           -38.41  -41.56   -3.15  H2
	H2O(g)           -1.51   -0.00    1.51  H2O
	N2(g)            -0.02   -3.28   -3.26  N2
	NH3(g)          -54.74  -52.97    1.77  NH3
	O2(g)            -6.36   -9.25   -2.89  O2

Reaction step 5.

Using solution 1.	
Using pure phase assemblage 1.	
Using gas phase 1.	
Using reaction 1.	

Reaction 1.	Irreversible reaction defined in simulation 1.

	 4.000e-003 moles of the following reaction have been added:

	                 Relative
	Reactant            moles

	CH2O                 1.00000

	                 Relative
	Element             moles
	C                    1.00000
	H                    2.00000
	O                    1.00000

-----------------------------------Gas phase-----------------------------------


Total pressure:   1.0000   atmospheres
    Gas volume:  7.58e-001 liters

                                                        Moles in gas
                                            ----------------------------------
Component                log P           P     Initial       Final       Delta

CH4(g)                 -129.21  6.173e-130  4.087e-008  0.000e+000 -4.087e-008
CO2(g)                   -1.38  4.163e-002  1.292e-005  1.290e-003  1.277e-003
N2(g)                    -0.02  9.584e-001  3.188e-002  2.969e-002 -2.195e-003
O2(g)                    -6.38  4.148e-007  8.175e-003  1.285e-008 -8.175e-003

-------------------------------Phase assemblage--------------------------------

                                                      Moles in assemblage
Phase                  SI log IAP  log KT      Initial       Final       Delta

Calcite              0.00   -8.48   -8.48   1.000e+001  9.999e+000 -7.423e-004
Dolomite             0.00  -17.09  -17.09   1.000e+001  9.998e+000 -2.017e-003

-----------------------------Solution composition------------------------------

	Elements           Molality       Moles

	C                7.511e-003  7.511e-003
	Ca               2.760e-003  2.760e-003
	Mg               2.017e-003  2.017e-003
	N                7.389e-003  7.390e-003

----------------------------Description of solution----------------------------

                                       pH  =   6.918      Charge balance
                                       pe  =  12.283      Adjusted to redox equilibrium
       Specific Conductance (uS/cm, 25 oC) = 1089
                          Density (g/cm3)  =   0.99743
                        Activity of water  =   1.000
                           Ionic strength  =  1.535e-002
                       Mass of water (kg)  =  1.000e+000
                 Total alkalinity (eq/kg)  =  6.110e-003
                       Total CO2 (mol/kg)  =  7.511e-003
                      Temperature (deg C)  =  25.000
                  Electrical balance (eq)  = -2.896e-003
 Percent error, 100*(Cat-|An|)/(Cat+|An|)  = -13.43
                               Iterations  =  25
                                  Total H  = 1.110205e+002
                                  Total O  = 5.554737e+001

----------------------------Distribution of species----------------------------

                                                   Log       Log         Log 
   Species                 Molality    Activity  Molality  Activity     Gamma

   H+                    1.342e-007  1.207e-007    -6.872    -6.918    -0.046
   OH-                   9.415e-008  8.291e-008    -7.026    -7.081    -0.055
   H2O                   5.551e+001  9.997e-001     1.744    -0.000     0.000
C(-4)           0.000e+000
   CH4                   0.000e+000  0.000e+000  -132.071  -132.070     0.002
C(4)            7.511e-003
   HCO3-                 5.881e-003  5.221e-003    -2.231    -2.282    -0.052
   CO2                   1.412e-003  1.417e-003    -2.850    -2.849     0.002
   CaHCO3+               1.225e-004  1.088e-004    -3.912    -3.963    -0.052
   MgHCO3+               8.364e-005  7.390e-005    -4.078    -4.131    -0.054
   CaCO3                 5.545e-006  5.565e-006    -5.256    -5.255     0.002
   CO3-2                 3.267e-006  2.028e-006    -5.486    -5.693    -0.207
   MgCO3                 2.333e-006  2.341e-006    -5.632    -5.631     0.002
Ca              2.760e-003
   Ca+2                  2.631e-003  1.633e-003    -2.580    -2.787    -0.207
   CaHCO3+               1.225e-004  1.088e-004    -3.912    -3.963    -0.052
   CaCO3                 5.545e-006  5.565e-006    -5.256    -5.255     0.002
   CaOH+                 2.541e-009  2.245e-009    -8.595    -8.649    -0.054
H(0)            0.000e+000
   H2                    0.000e+000  0.000e+000   -41.554   -41.553     0.002
Mg              2.017e-003
   Mg+2                  1.931e-003  1.210e-003    -2.714    -2.917    -0.203
   MgHCO3+               8.364e-005  7.390e-005    -4.078    -4.131    -0.054
   MgCO3                 2.333e-006  2.341e-006    -5.632    -5.631     0.002
   MgOH+                 4.117e-008  3.637e-008    -7.385    -7.439    -0.054
N(-3)           0.000e+000
   NH4+                  0.000e+000  0.000e+000   -50.568   -50.625    -0.057
   NH3                   0.000e+000  0.000e+000   -52.952   -52.951     0.002
N(0)            1.050e-003
   N2                    5.248e-004  5.267e-004    -3.280    -3.278     0.002
N(3)            9.318e-013
   NO2-                  9.318e-013  8.186e-013   -12.031   -12.087    -0.056
N(5)            6.340e-003
   NO3-                  6.340e-003  5.570e-003    -2.198    -2.254    -0.056
O(0)            1.059e-009
   O2                    5.296e-010  5.315e-010    -9.276    -9.275     0.002

------------------------------Saturation indices-------------------------------

	Phase               SI log IAP  log KT

	Aragonite        -0.14   -8.48   -8.34  CaCO3
	Calcite           0.00   -8.48   -8.48  CaCO3
	CH4(g)         -129.21 -132.07   -2.86  CH4
	CO2(g)           -1.38   -2.85   -1.47  CO2
	Dolomite          0.00  -17.09  -17.09  CaMg(CO3)2
	H2(g)           -38.40  -41.55   -3.15  H2
	H2O(g)           -1.51   -0.00    1.51  H2O
	N2(g)            -0.02   -3.28   -3.26  N2
	NH3(g)          -54.72  -52.95    1.77  NH3
	O2(g)            -6.38   -9.27   -2.89  O2

Reaction step 6.

Using solution 1.	
Using pure phase assemblage 1.	
Using gas phase 1.	
Using reaction 1.	

Reaction 1.	Irreversible reaction defined in simulation 1.

	 1.000e-002 moles of the following reaction have been added:

	                 Relative
	Reactant            moles

	CH2O                 1.00000

	                 Relative
	Element             moles
	C                    1.00000
	H                    2.00000
	O                    1.00000

-----------------------------------Gas phase-----------------------------------


Total pressure:   1.0000   atmospheres
    Gas volume:  8.46e-001 liters

                                                        Moles in gas
                                            ----------------------------------
Component                log P           P     Initial       Final       Delta

CH4(g)                 -128.12  7.580e-129  4.087e-008  0.000e+000 -4.087e-008
CO2(g)                   -1.14  7.209e-002  1.292e-005  2.494e-003  2.481e-003
N2(g)                    -0.03  9.279e-001  3.188e-002  3.210e-002  2.217e-004
O2(g)                    -6.81  1.558e-007  8.175e-003  5.389e-009 -8.175e-003

-------------------------------Phase assemblage--------------------------------

                                                      Moles in assemblage
Phase                  SI log IAP  log KT      Initial       Final       Delta

Calcite              0.00   -8.48   -8.48   1.000e+001  9.999e+000 -5.813e-004
Dolomite             0.00  -17.09  -17.09   1.000e+001  9.998e+000 -1.578e-003

-----------------------------Solution composition------------------------------

	Elements           Molality       Moles

	C                1.127e-002  1.127e-002
	Ca               2.159e-003  2.159e-003
	Mg               1.578e-003  1.578e-003
	N                2.557e-003  2.557e-003

----------------------------Description of solution----------------------------

                                       pH  =   6.848      Charge balance
                                       pe  =  12.247      Adjusted to redox equilibrium
       Specific Conductance (uS/cm, 25 oC) = 793
                          Density (g/cm3)  =   0.99755
                        Activity of water  =   1.000
                           Ionic strength  =  1.216e-002
                       Mass of water (kg)  =  1.000e+000
                 Total alkalinity (eq/kg)  =  8.831e-003
                       Total CO2 (mol/kg)  =  1.127e-002
                      Temperature (deg C)  =  25.000
                  Electrical balance (eq)  = -2.896e-003
 Percent error, 100*(Cat-|An|)/(Cat+|An|)  = -16.71
                               Iterations  =  22
                                  Total H  = 1.110325e+002
                                  Total O  = 5.554784e+001

----------------------------Distribution of species----------------------------

                                                   Log       Log         Log 
   Species                 Molality    Activity  Molality  Activity     Gamma

   H+                    1.565e-007  1.419e-007    -6.806    -6.848    -0.042
   OH-                   7.909e-008  7.051e-008    -7.102    -7.152    -0.050
   H2O                   5.551e+001  9.997e-001     1.744    -0.000     0.000
C(-4)           0.000e+000
   CH4                   0.000e+000  0.000e+000  -130.982  -130.980     0.001
C(4)            1.127e-002
   HCO3-                 8.567e-003  7.689e-003    -2.067    -2.114    -0.047
   CO2                   2.447e-003  2.454e-003    -2.611    -2.610     0.001
   CaHCO3+               1.425e-004  1.279e-004    -3.846    -3.893    -0.047
   MgHCO3+               9.721e-005  8.689e-005    -4.012    -4.061    -0.049
   CaCO3                 5.549e-006  5.565e-006    -5.256    -5.255     0.001
   CO3-2                 3.916e-006  2.541e-006    -5.407    -5.595    -0.188
   MgCO3                 2.335e-006  2.341e-006    -5.632    -5.631     0.001
Ca              2.159e-003
   Ca+2                  2.011e-003  1.304e-003    -2.697    -2.885    -0.188
   CaHCO3+               1.425e-004  1.279e-004    -3.846    -3.893    -0.047
   CaCO3                 5.549e-006  5.565e-006    -5.256    -5.255     0.001
   CaOH+                 1.705e-009  1.524e-009    -8.768    -8.817    -0.049
H(0)            0.000e+000
   H2                    0.000e+000  0.000e+000   -41.341   -41.340     0.001
Mg              1.578e-003
   Mg+2                  1.478e-003  9.658e-004    -2.830    -3.015    -0.185
   MgHCO3+               9.721e-005  8.689e-005    -4.012    -4.061    -0.049
   MgCO3                 2.335e-006  2.341e-006    -5.632    -5.631     0.001
   MgOH+                 2.763e-008  2.470e-008    -7.559    -7.607    -0.049
N(-3)           0.000e+000
   NH4+                  0.000e+000  0.000e+000   -50.191   -50.242    -0.052
   NH3                   0.000e+000  0.000e+000   -52.640   -52.639     0.001
N(0)            1.017e-003
   N2                    5.085e-004  5.099e-004    -3.294    -3.292     0.001
N(3)            3.693e-013
   NO2-                  3.693e-013  3.286e-013   -12.433   -12.483    -0.051
N(5)            1.540e-003
   NO3-                  1.540e-003  1.370e-003    -2.813    -2.863    -0.051
O(0)            3.981e-010
   O2                    1.990e-010  1.996e-010    -9.701    -9.700     0.001

------------------------------Saturation indices-------------------------------

	Phase               SI log IAP  log KT

	Aragonite        -0.14   -8.48   -8.34  CaCO3
	Calcite           0.00   -8.48   -8.48  CaCO3
	CH4(g)         -128.12 -130.98   -2.86  CH4
	CO2(g)           -1.14   -2.61   -1.47  CO2
	Dolomite          0.00  -17.09  -17.09  CaMg(CO3)2
	H2(g)           -38.19  -41.34   -3.15  H2
	H2O(g)           -1.51   -0.00    1.51  H2O
	N2(g)            -0.03   -3.29   -3.26  N2
	NH3(g)          -54.41  -52.64    1.77  NH3
	O2(g)            -6.81   -9.70   -2.89  O2

Reaction step 7.

Using solution 1.	
Using pure phase assemblage 1.	
Using gas phase 1.	
Using reaction 1.	

Reaction 1.	Irreversible reaction defined in simulation 1.

	 1.000e-001 moles of the following reaction have been added:

	                 Relative
	Reactant            moles

	CH2O                 1.00000

	                 Relative
	Element             moles
	C                    1.00000
	H                    2.00000
	O                    1.00000

-----------------------------------Gas phase-----------------------------------


Total pressure:   1.0000   atmospheres
    Gas volume:  2.64e+000 liters

                                                        Moles in gas
                                            ----------------------------------
Component                log P           P     Initial       Final       Delta

CH4(g)                   -0.41  3.897e-001  4.087e-008  4.205e-002  4.205e-002
CO2(g)                   -0.49  3.203e-001  1.292e-005  3.456e-002  3.455e-002
N2(g)                    -0.54  2.900e-001  3.188e-002  3.129e-002 -5.881e-004
O2(g)                   -70.34  4.577e-071  8.175e-003  0.000e+000 -8.175e-003

-------------------------------Phase assemblage--------------------------------

                                                      Moles in assemblage
Phase                  SI log IAP  log KT      Initial       Final       Delta

Calcite              0.00   -8.48   -8.48   1.000e+001  9.999e+000 -8.378e-004
Dolomite             0.00  -17.09  -17.09   1.000e+001  9.998e+000 -2.222e-003

-----------------------------Solution composition------------------------------

	Elements           Molality       Moles

	C                2.869e-002  2.869e-002
	Ca               3.060e-003  3.060e-003
	Mg               2.222e-003  2.222e-003
	N                4.177e-003  4.177e-003

----------------------------Description of solution----------------------------

                                       pH  =   6.480      Charge balance
                                       pe  =  -3.268      Adjusted to redox equilibrium
       Specific Conductance (uS/cm, 25 oC) = 1385
                          Density (g/cm3)  =   0.99795
                        Activity of water  =   0.999
                           Ionic strength  =  1.998e-002
                       Mass of water (kg)  =  1.000e+000
                 Total alkalinity (eq/kg)  =  1.732e-002
                       Total CO2 (mol/kg)  =  2.816e-002
                      Temperature (deg C)  =  25.000
                  Electrical balance (eq)  = -2.896e-003
 Percent error, 100*(Cat-|An|)/(Cat+|An|)  =  -9.48
                               Iterations  =  20
                                  Total H  = 1.110443e+002
                                  Total O  = 5.557834e+001

----------------------------Distribution of species----------------------------

                                                   Log       Log         Log 
   Species                 Molality    Activity  Molality  Activity     Gamma

   H+                    3.720e-007  3.310e-007    -6.429    -6.480    -0.051
   OH-                   3.486e-008  3.023e-008    -7.458    -7.520    -0.062
   H2O                   5.551e+001  9.994e-001     1.744    -0.000     0.000
C(-4)           5.355e-004
   CH4                   5.355e-004  5.380e-004    -3.271    -3.269     0.002
C(4)            2.816e-002
   HCO3-                 1.672e-002  1.464e-002    -1.777    -1.834    -0.058
   CO2                   1.085e-002  1.090e-002    -1.964    -1.962     0.002
   CaHCO3+               3.405e-004  2.983e-004    -3.468    -3.525    -0.058
   MgHCO3+               2.327e-004  2.026e-004    -3.633    -3.693    -0.060
   CaCO3                 5.539e-006  5.565e-006    -5.257    -5.255     0.002
   CO3-2                 3.526e-006  2.075e-006    -5.453    -5.683    -0.230
   MgCO3                 2.331e-006  2.341e-006    -5.633    -5.631     0.002
Ca              3.060e-003
   Ca+2                  2.714e-003  1.597e-003    -2.566    -2.797    -0.230
   CaHCO3+               3.405e-004  2.983e-004    -3.468    -3.525    -0.058
   CaCO3                 5.539e-006  5.565e-006    -5.257    -5.255     0.002
   CaOH+                 9.186e-010  8.000e-010    -9.037    -9.097    -0.060
H(0)            5.304e-010
   H2                    2.652e-010  2.664e-010    -9.576    -9.574     0.002
Mg              2.222e-003
   Mg+2                  1.987e-003  1.183e-003    -2.702    -2.927    -0.225
   MgHCO3+               2.327e-004  2.026e-004    -3.633    -3.693    -0.060
   MgCO3                 2.331e-006  2.341e-006    -5.633    -5.631     0.002
   MgOH+                 1.489e-008  1.296e-008    -7.827    -7.887    -0.060
N(-3)           3.859e-003
   NH4+                  3.854e-003  3.322e-003    -2.414    -2.479    -0.065
   NH3                   5.693e-006  5.720e-006    -5.245    -5.243     0.002
N(0)            3.173e-004
   N2                    1.586e-004  1.594e-004    -3.800    -3.798     0.002
N(3)            0.000e+000
   NO2-                  0.000e+000  0.000e+000   -60.689   -60.753    -0.063
N(5)            0.000e+000
   NO3-                  0.000e+000  0.000e+000   -82.835   -82.898    -0.063
O(0)            0.000e+000
   O2                    0.000e+000  0.000e+000   -73.234   -73.232     0.002

------------------------------Saturation indices-------------------------------

	Phase               SI log IAP  log KT

	Aragonite        -0.14   -8.48   -8.34  CaCO3
	Calcite           0.00   -8.48   -8.48  CaCO3
	CH4(g)           -0.41   -3.27   -2.86  CH4
	CO2(g)           -0.49   -1.96   -1.47  CO2
	Dolomite          0.00  -17.09  -17.09  CaMg(CO3)2
	H2(g)            -6.42   -9.57   -3.15  H2
	H2O(g)           -1.51   -0.00    1.51  H2O
	N2(g)            -0.54   -3.80   -3.26  N2
	NH3(g)           -7.01   -5.24    1.77  NH3
	O2(g)           -70.34  -73.23   -2.89  O2

Reaction step 8.

Using solution 1.	
Using pure phase assemblage 1.	
Using gas phase 1.	
Using reaction 1.	

Reaction 1.	Irreversible reaction defined in simulation 1.

	 3.000e-001 moles of the following reaction have been added:

	                 Relative
	Reactant            moles

	CH2O                 1.00000

	                 Relative
	Element             moles
	C                    1.00000
	H                    2.00000
	O                    1.00000

-----------------------------------Gas phase-----------------------------------


Total pressure:   1.0000   atmospheres
    Gas volume:  7.45e+000 liters

                                                        Moles in gas
                                            ----------------------------------
Component                log P           P     Initial       Final       Delta

CH4(g)                   -0.33  4.672e-001  4.087e-008  1.423e-001  1.423e-001
CO2(g)                   -0.37  4.280e-001  1.292e-005  1.304e-001  1.304e-001
N2(g)                    -0.98  1.047e-001  3.188e-002  3.191e-002  3.144e-005
O2(g)                   -70.32  4.833e-071  8.175e-003  0.000e+000 -8.175e-003

-------------------------------Phase assemblage--------------------------------

                                                      Moles in assemblage
Phase                  SI log IAP  log KT      Initial       Final       Delta

Calcite              0.00   -8.48   -8.48   1.000e+001  9.999e+000 -1.024e-003
Dolomite             0.00  -17.09  -17.09   1.000e+001  9.997e+000 -2.705e-003

-----------------------------Solution composition------------------------------

	Elements           Molality       Moles

	C                3.371e-002  3.371e-002
	Ca               3.729e-003  3.729e-003
	Mg               2.705e-003  2.705e-003
	N                2.937e-003  2.937e-003

----------------------------Description of solution----------------------------

                                       pH  =   6.380      Charge balance
                                       pe  =  -3.162      Adjusted to redox equilibrium
       Specific Conductance (uS/cm, 25 oC) = 1447
                          Density (g/cm3)  =   0.99806
                        Activity of water  =   0.999
                           Ionic strength  =  2.210e-002
                       Mass of water (kg)  =  1.000e+000
                 Total alkalinity (eq/kg)  =  1.859e-002
                       Total CO2 (mol/kg)  =  3.307e-002
                      Temperature (deg C)  =  25.000
                  Electrical balance (eq)  = -2.896e-003
 Percent error, 100*(Cat-|An|)/(Cat+|An|)  =  -8.83
                               Iterations  =  23
                                  Total H  = 1.110432e+002
                                  Total O  = 5.559010e+001

----------------------------Distribution of species----------------------------

                                                   Log       Log         Log 
   Species                 Molality    Activity  Molality  Activity     Gamma

   H+                    4.705e-007  4.169e-007    -6.327    -6.380    -0.053
   OH-                   2.785e-008  2.400e-008    -7.555    -7.620    -0.065
   H2O                   5.551e+001  9.993e-001     1.744    -0.000     0.000
C(-4)           6.417e-004
   CH4                   6.417e-004  6.449e-004    -3.193    -3.190     0.002
C(4)            3.307e-002
   HCO3-                 1.784e-002  1.554e-002    -1.749    -1.809    -0.060
   CO2                   1.450e-002  1.457e-002    -1.839    -1.836     0.002
   CaHCO3+               4.313e-004  3.757e-004    -3.365    -3.425    -0.060
   MgHCO3+               2.947e-004  2.552e-004    -3.531    -3.593    -0.063
   CaCO3                 5.537e-006  5.565e-006    -5.257    -5.255     0.002
   CO3-2                 3.035e-006  1.748e-006    -5.518    -5.757    -0.240
   MgCO3                 2.330e-006  2.341e-006    -5.633    -5.631     0.002
Ca              3.729e-003
   Ca+2                  3.292e-003  1.895e-003    -2.483    -2.722    -0.240
   CaHCO3+               4.313e-004  3.757e-004    -3.365    -3.425    -0.060
   CaCO3                 5.537e-006  5.565e-006    -5.257    -5.255     0.002
   CaOH+                 8.707e-010  7.539e-010    -9.060    -9.123    -0.063
H(0)            5.159e-010
   H2                    2.580e-010  2.593e-010    -9.588    -9.586     0.002
Mg              2.705e-003
   Mg+2                  2.408e-003  1.404e-003    -2.618    -2.853    -0.234
   MgHCO3+               2.947e-004  2.552e-004    -3.531    -3.593    -0.063
   MgCO3                 2.330e-006  2.341e-006    -5.633    -5.631     0.002
   MgOH+                 1.411e-008  1.222e-008    -7.850    -7.913    -0.063
N(-3)           2.823e-003
   NH4+                  2.820e-003  2.414e-003    -2.550    -2.617    -0.067
   NH3                   3.283e-006  3.300e-006    -5.484    -5.482     0.002
N(0)            1.145e-004
   N2                    5.727e-005  5.756e-005    -4.242    -4.240     0.002
N(3)            0.000e+000
   NO2-                  0.000e+000  0.000e+000   -60.990   -61.056    -0.066
N(5)            0.000e+000
   NO3-                  0.000e+000  0.000e+000   -83.124   -83.190    -0.066
O(0)            0.000e+000
   O2                    0.000e+000  0.000e+000   -73.210   -73.208     0.002

------------------------------Saturation indices-------------------------------

	Phase               SI log IAP  log KT

	Aragonite        -0.14   -8.48   -8.34  CaCO3
	Calcite           0.00   -8.48   -8.48  CaCO3
	CH4(g)           -0.33   -3.19   -2.86  CH4
	CO2(g)           -0.37   -1.84   -1.47  CO2
	Dolomite          0.00  -17.09  -17.09  CaMg(CO3)2
	H2(g)            -6.44   -9.59   -3.15  H2
	H2O(g)           -1.51   -0.00    1.51  H2O
	N2(g)            -0.98   -4.24   -3.26  N2
	NH3(g)           -7.25   -5.48    1.77  NH3
	O2(g)           -70.32  -73.21   -2.89  O2

------------------
End of simulation.
------------------

------------------------------------
Reading input data for simulation 2.
------------------------------------

-----------
End of run.
-----------

