   Input file: hard.tests
  Output file: hard.tests.out
Database file: ../database/wateq4f.dat

------------------
Reading data base.
------------------

	SOLUTION_MASTER_SPECIES
	SOLUTION_SPECIES
	PHASES
	EXCHANGE_MASTER_SPECIES
	EXCHANGE_SPECIES
	SURFACE_MASTER_SPECIES
	SURFACE_SPECIES
	RATES
	END
------------------------------------
Reading input data for simulation 1.
------------------------------------

	DATABASE ../database/wateq4f.dat
	knobs
		logfile
	PRINT
		status false
	SOLUTION 1 Pure water
	        pH      7.0
	        units   mol/kgw
	        pe      4.0
	        temp    25.0
	PURE_PHASES 3
		Pyrite		0.0	2.0
		Goethite	0.0	2.0
		Siderite	0.0	2.0
		Sphalerite	0.0	2.0
		Smithsonite	0.0	2.0
		Zincite(c)	0.0	2.0
		Calcite		0.0	2.0
		Dolomite	0.0	2.0
		Gypsum		0.0	2.0
		ZnCO3:H2O	0.0	2.0
		Magnetite	0.0	2.0
		Hematite	0.0	2.0
		Greigite	0.0	2.0
		FeS(ppt)	0.0	2.0
		Mackinawite	0.0	2.0
		Zincosite  	0.0	2.0
		Zn(OH)2-a 	0.0	2.0
		Zn(OH)2-b 	0.0	2.0
		Zn(OH)2-c 	0.0	2.0
		Zn(OH)2-e 	0.0	2.0
		Zn(OH)2-g 	0.0	2.0
		Zn2(OH)2SO4	0.0	2.0
		Zn3O(SO4)2 	0.0	2.0
		Zn4(OH)6SO4	0.0	2.0
		ZnMetal    	0.0	2.0
		ZnO(a)     	0.0	2.0
		ZnS(a)     	0.0	2.0
		ZnSO4:H2O  	0.0	2.0
	END
-------------------------------------------
Beginning of initial solution calculations.
-------------------------------------------

Initial solution 1.	Pure water

-----------------------------Solution composition------------------------------

	Elements           Molality       Moles

	Pure water     

----------------------------Description of solution----------------------------

                                       pH  =   7.000    
                                       pe  =   4.000    
                        Activity of water  =   1.000
                           Ionic strength  =  1.001e-007
                       Mass of water (kg)  =  1.000e+000
                 Total alkalinity (eq/kg)  =  1.082e-010
                    Total carbon (mol/kg)  =  0.000e+000
                       Total CO2 (mol/kg)  =  0.000e+000
                      Temperature (deg C)  =  25.000
                  Electrical balance (eq)  = -1.082e-010
 Percent error, 100*(Cat-|An|)/(Cat+|An|)  =  -0.05
                               Iterations  =   0
                                  Total H  = 1.110124e+002
                                  Total O  = 5.550622e+001

----------------------------Distribution of species----------------------------

                                                   Log       Log         Log 
   Species                 Molality    Activity  Molality  Activity     Gamma

   OH-                   1.002e-007  1.001e-007    -6.999    -6.999    -0.000
   H+                    1.001e-007  1.000e-007    -7.000    -7.000    -0.000
   H2O                   5.551e+001  1.000e+000     1.744     0.000     0.000
H(0)            1.416e-025
   H2                    7.079e-026  7.079e-026   -25.150   -25.150     0.000
O(0)            0.000e+000
   O2                    0.000e+000  0.000e+000   -42.080   -42.080     0.000

------------------------------Saturation indices-------------------------------

	Phase               SI log IAP  log KT

	H2(g)           -22.00  -25.15   -3.15  H2
	H2O(g)           -1.51    0.00    1.51  H2O
	O2(g)           -39.19  -42.08   -2.89  O2

-----------------------------------------
Beginning of batch-reaction calculations.
-----------------------------------------

Reaction step 1.

Using solution 1.	Pure water
Using pure phase assemblage 3.	

-------------------------------Phase assemblage--------------------------------

                                                      Moles in assemblage
Phase                  SI log IAP  log KT      Initial       Final       Delta

Calcite             -3.34  -11.82   -8.48   2.000e+000           0 -2.000e+000
Dolomite            -3.95  -21.04  -17.09   2.000e+000           0 -2.000e+000
FeS(ppt)           -12.46  -16.37   -3.92   2.000e+000           0 -2.000e+000
Goethite            -1.02   -2.02   -1.00   2.000e+000           0 -2.000e+000
Greigite           -41.61  -86.65  -45.03   2.000e+000           0 -2.000e+000
Gypsum               0.00   -4.58   -4.58   2.000e+000  5.995e+000  3.995e+000
Hematite             0.00   -4.01   -4.01   2.000e+000  1.300e+001  1.100e+001
Mackinawite        -11.72  -16.37   -4.65   2.000e+000           0 -2.000e+000
Magnetite           -2.03    1.71    3.74   2.000e+000           0 -2.000e+000
Pyrite              -9.39  -27.87  -18.48   2.000e+000           0 -2.000e+000
Siderite            -4.10  -14.99  -10.89   2.000e+000           0 -2.000e+000
Smithsonite         -0.24  -10.24  -10.00   2.000e+000           0 -2.000e+000
Sphalerite           0.00  -11.62  -11.62   2.000e+000  2.150e+001  1.950e+001
Zincite(c)          -0.67   10.47   11.14   2.000e+000           0 -2.000e+000
Zincosite           -5.96   -2.95    3.01   2.000e+000           0 -2.000e+000
Zn(OH)2-a           -2.00   10.45   12.45   2.000e+000           0 -2.000e+000
Zn(OH)2-b           -1.30   10.45   11.75   2.000e+000           0 -2.000e+000
Zn(OH)2-c           -1.75   10.45   12.20   2.000e+000           0 -2.000e+000
Zn(OH)2-e           -1.05   10.45   11.50   2.000e+000           0 -2.000e+000
Zn(OH)2-g           -1.26   10.45   11.71   2.000e+000           0 -2.000e+000
Zn2(OH)2SO4         -0.00    7.50    7.50   2.000e+000  2.408e+000  4.084e-001
Zn3O(SO4)2         -14.45    4.57   19.02   2.000e+000           0 -2.000e+000
Zn4(OH)6SO4          0.00   28.40   28.40   2.000e+000  1.864e+000 -1.361e-001
ZnCO3:H2O            0.00  -10.26  -10.26   2.000e+000  1.200e+001  1.000e+001
ZnMetal            -25.88   -0.12   25.76   2.000e+000           0 -2.000e+000
ZnO(a)              -0.84   10.47   11.31   2.000e+000           0 -2.000e+000
ZnS(a)              -2.57  -11.62   -9.05   2.000e+000           0 -2.000e+000
ZnSO4:H2O           -2.40   -2.97   -0.57   2.000e+000           0 -2.000e+000

-----------------------------Solution composition------------------------------

	Elements           Molality       Moles

	C                3.752e-004  3.415e-004
	Ca               5.294e-003  4.818e-003
	Fe               2.378e-006  2.164e-006
	Mg               2.198e+000  2.000e+000
	S                2.453e+000  2.233e+000
	Zn               2.504e-001  2.278e-001

----------------------------Description of solution----------------------------

                                       pH  =   6.078      Charge balance
                                       pe  =  -0.771      Adjusted to redox equilibrium
                        Activity of water  =   0.950
                           Ionic strength  =  2.245e+000
                       Mass of water (kg)  =  9.101e-001
                 Total alkalinity (eq/kg)  =  3.479e-004
                       Total CO2 (mol/kg)  =  3.752e-004
                      Temperature (deg C)  =  25.000
                  Electrical balance (eq)  = -1.773e-009
 Percent error, 100*(Cat-|An|)/(Cat+|An|)  =  -0.00
                               Iterations  =  21
                                  Total H  = 1.010320e+002
                                  Total O  = 5.944689e+001

----------------------------Distribution of species----------------------------

                                                   Log       Log         Log 
   Species                 Molality    Activity  Molality  Activity     Gamma

   H+                    1.154e-006  8.350e-007    -5.938    -6.078    -0.141
   OH-                   1.045e-008  1.139e-008    -7.981    -7.943     0.038
   H2O                   5.551e+001  9.501e-001     1.744    -0.022     0.000
C(-4)           5.269e-023
   CH4                   5.269e-023  8.835e-023   -22.278   -22.054     0.225
C(4)            3.752e-004
   ZnHCO3+               1.189e-004  1.297e-004    -3.925    -3.887     0.038
   MgHCO3+               1.165e-004  1.270e-004    -3.934    -3.896     0.038
   HCO3-                 7.649e-005  4.731e-005    -4.116    -4.325    -0.209
   CO2                   5.575e-005  9.348e-005    -4.254    -4.029     0.225
   ZnCO3                 6.882e-006  1.154e-005    -5.162    -4.938     0.225
   MgCO3                 3.470e-007  5.819e-007    -6.460    -6.235     0.225
   CaHCO3+               3.122e-007  3.404e-007    -6.506    -6.468     0.038
   CO3-2                 1.816e-008  2.657e-009    -7.741    -8.576    -0.835
   FeHCO3+               1.670e-009  1.821e-009    -8.777    -8.740     0.038
   CaCO3                 1.498e-009  2.511e-009    -8.825    -8.600     0.225
   Zn(CO3)2-2            4.638e-010  6.555e-010    -9.334    -9.183     0.150
   FeCO3                 1.463e-011  2.453e-011   -10.835   -10.610     0.225
Ca              5.294e-003
   CaSO4                 3.460e-003  5.802e-003    -2.461    -2.236     0.225
   Ca+2                  1.834e-003  5.642e-004    -2.737    -3.249    -0.512
   CaHCO3+               3.122e-007  3.404e-007    -6.506    -6.468     0.038
   CaHSO4+               2.603e-008  2.838e-008    -7.585    -7.547     0.038
   CaCO3                 1.498e-009  2.511e-009    -8.825    -8.600     0.225
   CaOH+                 9.771e-011  1.065e-010   -10.010    -9.972     0.038
Fe(2)           2.378e-006
   FeSO4                 2.104e-006  3.528e-006    -5.677    -5.453     0.225
   Fe+2                  2.723e-007  3.849e-007    -6.565    -6.415     0.150
   FeHCO3+               1.670e-009  1.821e-009    -8.777    -8.740     0.038
   FeOH+                 1.270e-010  1.385e-010    -9.896    -9.859     0.038
   FeHSO4+               1.776e-011  1.936e-011   -10.751   -10.713     0.038
   FeCO3                 1.463e-011  2.453e-011   -10.835   -10.610     0.225
   Fe(OH)2               7.998e-016  1.341e-015   -15.097   -14.873     0.225
   Fe(OH)3-              5.199e-020  5.669e-020   -19.284   -19.246     0.038
   Fe(HS)2               1.748e-030  2.931e-030   -29.758   -29.533     0.225
   Fe(HS)3-              0.000e+000  0.000e+000   -43.568   -43.530     0.038
Fe(3)           1.736e-014
   Fe(OH)2+              1.581e-014  1.724e-014   -13.801   -13.763     0.038
   Fe(OH)3               1.507e-015  2.527e-015   -14.822   -14.597     0.225
   FeOH+2                3.238e-017  4.576e-017   -16.490   -16.339     0.150
   Fe(SO4)2-             3.640e-018  3.969e-018   -17.439   -17.401     0.038
   FeSO4+                3.229e-018  3.520e-018   -17.491   -17.453     0.038
   Fe(OH)4-              2.405e-018  2.622e-018   -17.619   -17.581     0.038
   Fe+3                  2.860e-021  6.230e-021   -20.544   -20.206     0.338
   FeHSO4+2              5.569e-024  7.872e-024   -23.254   -23.104     0.150
   Fe2(OH)2+4            1.412e-032  5.637e-032   -31.850   -31.249     0.601
   Fe3(OH)4+5            0.000e+000  0.000e+000   -43.632   -42.692     0.939
H(0)            2.050e-014
   H2                    1.025e-014  1.719e-014   -13.989   -13.765     0.225
Mg              2.198e+000
   MgSO4                 1.654e+000  2.773e+000     0.218     0.443     0.225
   Mg+2                  5.439e-001  2.295e-001    -0.264    -0.639    -0.375
   MgHCO3+               1.165e-004  1.270e-004    -3.934    -3.896     0.038
   MgOH+                 8.695e-007  9.481e-007    -6.061    -6.023     0.038
   MgCO3                 3.470e-007  5.819e-007    -6.460    -6.235     0.225
O(0)            0.000e+000
   O2                    0.000e+000  0.000e+000   -65.119   -64.895     0.225
S(-2)           4.882e-016
   H2S                   4.024e-016  6.748e-016   -15.395   -15.171     0.225
   HS-                   8.477e-017  9.243e-017   -16.072   -16.034     0.038
   Zn(HS)2               9.661e-020  1.620e-019   -19.015   -18.790     0.225
   S5-2                  7.786e-020  2.813e-020   -19.109   -19.551    -0.442
   S4-2                  5.380e-020  1.641e-020   -19.269   -19.785    -0.516
   S6-2                  3.549e-020  1.456e-020   -19.450   -19.837    -0.387
   S3-2                  2.402e-023  5.782e-024   -22.619   -23.238    -0.618
   S-2                   9.458e-024  1.337e-023   -23.024   -22.874     0.150
   S2-2                  1.751e-024  3.282e-025   -23.757   -24.484    -0.727
   Fe(HS)2               1.748e-030  2.931e-030   -29.758   -29.533     0.225
   Zn(HS)3-              1.985e-034  2.164e-034   -33.702   -33.665     0.038
   Fe(HS)3-              0.000e+000  0.000e+000   -43.568   -43.530     0.038
S(6)            2.453e+000
   MgSO4                 1.654e+000  2.773e+000     0.218     0.443     0.225
   SO4-2                 4.833e-001  5.154e-002    -0.316    -1.288    -0.972
   ZnSO4                 1.569e-001  2.630e-001    -0.805    -0.580     0.225
   Zn(SO4)2-2            7.795e-002  1.102e-001    -1.108    -0.958     0.150
   CaSO4                 3.460e-003  5.802e-003    -2.461    -2.236     0.225
   HSO4-                 3.837e-006  4.184e-006    -5.416    -5.378     0.038
   FeSO4                 2.104e-006  3.528e-006    -5.677    -5.453     0.225
   CaHSO4+               2.603e-008  2.838e-008    -7.585    -7.547     0.038
   FeHSO4+               1.776e-011  1.936e-011   -10.751   -10.713     0.038
   Fe(SO4)2-             3.640e-018  3.969e-018   -17.439   -17.401     0.038
   FeSO4+                3.229e-018  3.520e-018   -17.491   -17.453     0.038
   FeHSO4+2              5.569e-024  7.872e-024   -23.254   -23.104     0.150
Zn              2.504e-001
   ZnSO4                 1.569e-001  2.630e-001    -0.805    -0.580     0.225
   Zn(SO4)2-2            7.795e-002  1.102e-001    -1.108    -0.958     0.150
   Zn+2                  1.540e-002  2.177e-002    -1.812    -1.662     0.150
   ZnHCO3+               1.189e-004  1.297e-004    -3.925    -3.887     0.038
   ZnOH+                 2.491e-005  2.716e-005    -4.604    -4.566     0.038
   ZnCO3                 6.882e-006  1.154e-005    -5.162    -4.938     0.225
   Zn(OH)2               2.116e-007  3.548e-007    -6.675    -6.450     0.225
   Zn(CO3)2-2            4.638e-010  6.555e-010    -9.334    -9.183     0.150
   Zn(OH)3-              1.171e-012  1.277e-012   -11.932   -11.894     0.038
   Zn(OH)4-2             1.629e-019  2.302e-019   -18.788   -18.638     0.150
   Zn(HS)2               9.661e-020  1.620e-019   -19.015   -18.790     0.225
   Zn(HS)3-              1.985e-034  2.164e-034   -33.702   -33.665     0.038

------------------------------Saturation indices-------------------------------

	Phase               SI log IAP  log KT

	Anhydrite        -0.18   -4.54   -4.36  CaSO4
	Aragonite        -3.49  -11.82   -8.34  CaCO3
	Artinite         -7.41    2.19    9.60  MgCO3:Mg(OH)2:3H2O
	Bianchite        -1.32   -3.08   -1.76  ZnSO4:6H2O
	Brucite          -5.37   11.47   16.84  Mg(OH)2
	Calcite          -3.34  -11.82   -8.48  CaCO3
	CH4(g)          -19.19  -22.05   -2.86  CH4
	CO2(g)           -2.56   -4.03   -1.47  CO2
	Dolomite         -3.95  -21.04  -17.09  CaMg(CO3)2
	Dolomite(d)      -4.50  -21.04  -16.54  CaMg(CO3)2
	Epsomite          0.06   -2.08   -2.14  MgSO4:7H2O
	Fe(OH)3(a)       -6.93   -2.04    4.89  Fe(OH)3
	Fe3(OH)8        -18.60    1.62   20.22  Fe3(OH)8
	FeS(ppt)        -12.46  -16.37   -3.92  FeS
	Goethite         -1.02   -2.02   -1.00  FeOOH
	Goslarite        -1.15   -3.11   -1.96  ZnSO4:7H2O
	Greigite        -41.61  -86.65  -45.03  Fe3S4
	Gypsum            0.00   -4.58   -4.58  CaSO4:2H2O
	H2(g)           -10.61  -13.76   -3.15  H2
	H2O(g)           -1.53   -0.02    1.51  H2O
	H2S(g)          -14.17  -15.17   -1.00  H2S
	Hematite          0.00   -4.01   -4.01  Fe2O3
	Huntite          -9.50  -39.47  -29.97  CaMg3(CO3)4
	Hydromagnesite  -16.71  -25.48   -8.76  Mg5(CO3)4(OH)2:4H2O
	JarositeH       -27.57  -32.96   -5.39  (H3O)Fe3(SO4)2(OH)6
	Mackinawite     -11.72  -16.37   -4.65  FeS
	Maghemite       -10.39   -4.01    6.39  Fe2O3
	Magnesite        -1.19   -9.21   -8.03  MgCO3
	Magnetite        -2.03    1.71    3.74  Fe3O4
	Melanterite      -5.65   -7.86   -2.21  FeSO4:7H2O
	Nesquehonite     -3.66   -9.28   -5.62  MgCO3:3H2O
	O2(g)           -62.00  -64.89   -2.89  O2
	Portlandite     -13.94    8.86   22.80  Ca(OH)2
	Pyrite           -9.39  -27.87  -18.48  FeS2
	Siderite         -4.10  -14.99  -10.89  FeCO3
	Siderite(d)(3)   -4.54  -14.99  -10.45  FeCO3
	Smithsonite      -0.24  -10.24  -10.00  ZnCO3
	Sphalerite        0.00  -11.62  -11.62  ZnS
	Sulfur           -9.39  -24.42  -15.03  S
	Wurtzite         -1.94  -11.62   -9.68  ZnS
	Zincite(c)       -0.67   10.47   11.14  ZnO
	Zincosite        -5.96   -2.95    3.01  ZnSO4
	Zn(OH)2-a        -2.00   10.45   12.45  Zn(OH)2
	Zn(OH)2-b        -1.30   10.45   11.75  Zn(OH)2
	Zn(OH)2-c        -1.75   10.45   12.20  Zn(OH)2
	Zn(OH)2-e        -1.05   10.45   11.50  Zn(OH)2
	Zn(OH)2-g        -1.26   10.45   11.71  Zn(OH)2
	Zn2(OH)2SO4      -0.00    7.50    7.50  Zn2(OH)2SO4
	Zn3O(SO4)2      -14.45    4.57   19.02  ZnO:2ZnSO4
	Zn4(OH)6SO4       0.00   28.40   28.40  Zn4(OH)6SO4
	ZnCO3:H2O         0.00  -10.26  -10.26  ZnCO3:H2O
	ZnMetal         -25.88   -0.12   25.76  Zn
	ZnO(a)           -0.84   10.47   11.31  ZnO
	ZnS(a)           -2.57  -11.62   -9.05  ZnS
	ZnSO4:H2O        -2.40   -2.97   -0.57  ZnSO4:H2O

------------------
End of simulation.
------------------

------------------------------------
Reading input data for simulation 2.
------------------------------------

	SOLUTION 1
		units 	mg/L
		pH	5.5
		pe	4.7
		Ca	340.
		Mg	180
		Na	76
		Alkalinity 	140 as Ca0.5(CO3)0.5
		S(6)	3200
		Cl	21.
		Fe	270
		Zn	210
	PURE_PHASES 1
		sphalerite	
		pyrite
	REACTION 1
		CH2O	1.0
		0.03 moles in 3 steps
	END
-------------------------------------------
Beginning of initial solution calculations.
-------------------------------------------

Initial solution 1.	

-----------------------------Solution composition------------------------------

	Elements           Molality       Moles

	Alkalinity       2.810e-003  2.810e-003
	Ca               8.521e-003  8.521e-003
	Cl               5.950e-004  5.950e-004
	Fe               4.856e-003  4.856e-003
	Mg               7.437e-003  7.437e-003
	Na               3.321e-003  3.321e-003
	S(6)             3.346e-002  3.346e-002
	Zn               3.227e-003  3.227e-003

----------------------------Description of solution----------------------------

                                       pH  =   5.500    
                                       pe  =   4.700    
                        Activity of water  =   0.999
                           Ionic strength  =  7.458e-002
                       Mass of water (kg)  =  1.000e+000
                    Total carbon (mol/kg)  =  1.560e-002
                       Total CO2 (mol/kg)  =  1.560e-002
                      Temperature (deg C)  =  25.000
                  Electrical balance (eq)  = -1.893e-002
 Percent error, 100*(Cat-|An|)/(Cat+|An|)  = -24.28
                               Iterations  =  10
                                  Total H  = 1.110153e+002
                                  Total O  = 5.567407e+001

----------------------------Distribution of species----------------------------

                                                   Log       Log         Log 
   Species                 Molality    Activity  Molality  Activity     Gamma

   H+                    3.776e-006  3.162e-006    -5.423    -5.500    -0.077
   OH-                   3.961e-009  3.162e-009    -8.402    -8.500    -0.098
   H2O                   5.551e+001  9.989e-001     1.744    -0.000     0.000
C(4)            1.560e-002
   CO2                   1.278e-002  1.301e-002    -1.893    -1.886     0.007
   HCO3-                 2.267e-003  1.827e-003    -2.644    -2.738    -0.094
   FeHCO3+               2.582e-004  2.061e-004    -3.588    -3.686    -0.098
   ZnHCO3+               1.761e-004  1.406e-004    -3.754    -3.852    -0.098
   CaHCO3+               5.937e-005  4.739e-005    -4.226    -4.324    -0.098
   MgHCO3+               4.498e-005  3.590e-005    -4.347    -4.445    -0.098
   ZnCO3                 3.248e-006  3.304e-006    -5.488    -5.481     0.007
   NaHCO3                2.563e-006  2.608e-006    -5.591    -5.584     0.007
   FeCO3                 7.208e-007  7.332e-007    -6.142    -6.135     0.007
   CaCO3                 9.074e-008  9.231e-008    -7.042    -7.035     0.007
   CO3-2                 6.424e-008  2.710e-008    -7.192    -7.567    -0.375
   MgCO3                 4.268e-008  4.342e-008    -7.370    -7.362     0.007
   Zn(CO3)2-2            4.715e-009  1.914e-009    -8.327    -8.718    -0.391
   NaCO3-                1.604e-009  1.281e-009    -8.795    -8.893    -0.098
Ca              8.521e-003
   Ca+2                  4.787e-003  2.033e-003    -2.320    -2.692    -0.372
   CaSO4                 3.675e-003  3.738e-003    -2.435    -2.427     0.007
   CaHCO3+               5.937e-005  4.739e-005    -4.226    -4.324    -0.098
   CaCO3                 9.074e-008  9.231e-008    -7.042    -7.035     0.007
   CaHSO4+               8.675e-008  6.925e-008    -7.062    -7.160    -0.098
   CaOH+                 1.335e-010  1.066e-010    -9.874    -9.972    -0.098
Cl              5.950e-004
   Cl-                   5.931e-004  4.660e-004    -3.227    -3.332    -0.105
   ZnCl+                 9.602e-007  7.665e-007    -6.018    -6.115    -0.098
   FeCl+                 9.089e-007  7.256e-007    -6.041    -6.139    -0.098
   ZnOHCl                2.928e-009  2.979e-009    -8.533    -8.526     0.007
   ZnCl2                 3.677e-010  3.740e-010    -9.435    -9.427     0.007
   ZnCl3-                2.450e-013  1.956e-013   -12.611   -12.709    -0.098
   FeCl+2                1.871e-013  7.598e-014   -12.728   -13.119    -0.391
   FeCl2+                1.981e-016  1.581e-016   -15.703   -15.801    -0.098
   ZnCl4-2               1.125e-016  4.567e-017   -15.949   -16.340    -0.391
   FeCl3                 7.244e-021  7.369e-021   -20.140   -20.133     0.007
Fe(2)           4.855e-003
   Fe+2                  2.778e-003  1.128e-003    -2.556    -2.948    -0.391
   FeSO4                 1.817e-003  1.848e-003    -2.741    -2.733     0.007
   FeHCO3+               2.582e-004  2.061e-004    -3.588    -3.686    -0.098
   FeCl+                 9.089e-007  7.256e-007    -6.041    -6.139    -0.098
   FeCO3                 7.208e-007  7.332e-007    -6.142    -6.135     0.007
   FeOH+                 1.411e-007  1.127e-007    -6.850    -6.948    -0.098
   FeHSO4+               4.813e-008  3.842e-008    -7.318    -7.415    -0.098
   Fe(OH)2               2.978e-013  3.029e-013   -12.526   -12.519     0.007
   Fe(OH)3-              4.453e-018  3.555e-018   -17.351   -17.449    -0.098
Fe(3)           1.517e-006
   Fe(OH)2+              1.443e-006  1.152e-006    -5.841    -5.939    -0.098
   Fe(OH)3               4.607e-008  4.686e-008    -7.337    -7.329     0.007
   FeOH+2                2.712e-008  1.101e-008    -7.567    -7.958    -0.391
   FeSO4+                6.833e-010  5.454e-010    -9.165    -9.263    -0.098
   Fe(SO4)2-             1.377e-010  1.100e-010    -9.861    -9.959    -0.098
   Fe+3                  4.102e-011  5.399e-012   -10.387   -11.268    -0.881
   Fe(OH)4-              1.691e-011  1.350e-011   -10.772   -10.870    -0.098
   FeCl+2                1.871e-013  7.598e-014   -12.728   -13.119    -0.391
   Fe2(OH)2+4            1.200e-013  3.263e-015   -12.921   -14.486    -1.566
   FeHSO4+2              1.137e-014  4.619e-015   -13.944   -14.335    -0.391
   Fe3(OH)4+5            2.195e-016  7.851e-019   -15.659   -18.105    -2.446
   FeCl2+                1.981e-016  1.581e-016   -15.703   -15.801    -0.098
   FeCl3                 7.244e-021  7.369e-021   -20.140   -20.133     0.007
H(0)            5.541e-024
   H2                    2.770e-024  2.818e-024   -23.557   -23.550     0.007
Mg              7.437e-003
   Mg+2                  3.826e-003  1.679e-003    -2.417    -2.775    -0.358
   MgSO4                 3.565e-003  3.627e-003    -2.448    -2.440     0.007
   MgHCO3+               4.498e-005  3.590e-005    -4.347    -4.445    -0.098
   MgCO3                 4.268e-008  4.342e-008    -7.370    -7.362     0.007
   MgOH+                 2.413e-009  1.926e-009    -8.618    -8.715    -0.098
Na              3.321e-003
   Na+                   3.171e-003  2.538e-003    -2.499    -2.596    -0.097
   NaSO4-                1.468e-004  1.172e-004    -3.833    -3.931    -0.098
   NaHCO3                2.563e-006  2.608e-006    -5.591    -5.584     0.007
   NaCO3-                1.604e-009  1.281e-009    -8.795    -8.893    -0.098
O(0)            0.000e+000
   O2                    0.000e+000  0.000e+000   -45.288   -45.281     0.007
S(6)            3.346e-002
   SO4-2                 2.247e-002  9.214e-003    -1.648    -2.036    -0.387
   CaSO4                 3.675e-003  3.738e-003    -2.435    -2.427     0.007
   MgSO4                 3.565e-003  3.627e-003    -2.448    -2.440     0.007
   FeSO4                 1.817e-003  1.848e-003    -2.741    -2.733     0.007
   ZnSO4                 1.298e-003  1.320e-003    -2.887    -2.879     0.007
   Zn(SO4)2-2            2.435e-004  9.887e-005    -3.614    -4.005    -0.391
   NaSO4-                1.468e-004  1.172e-004    -3.833    -3.931    -0.098
   HSO4-                 3.549e-006  2.833e-006    -5.450    -5.548    -0.098
   CaHSO4+               8.675e-008  6.925e-008    -7.062    -7.160    -0.098
   FeHSO4+               4.813e-008  3.842e-008    -7.318    -7.415    -0.098
   FeSO4+                6.833e-010  5.454e-010    -9.165    -9.263    -0.098
   Fe(SO4)2-             1.377e-010  1.100e-010    -9.861    -9.959    -0.098
   FeHSO4+2              1.137e-014  4.619e-015   -13.944   -14.335    -0.391
Zn              3.227e-003
   Zn+2                  1.505e-003  6.111e-004    -2.822    -3.214    -0.391
   ZnSO4                 1.298e-003  1.320e-003    -2.887    -2.879     0.007
   Zn(SO4)2-2            2.435e-004  9.887e-005    -3.614    -4.005    -0.391
   ZnHCO3+               1.761e-004  1.406e-004    -3.754    -3.852    -0.098
   ZnCO3                 3.248e-006  3.304e-006    -5.488    -5.481     0.007
   ZnCl+                 9.602e-007  7.665e-007    -6.018    -6.115    -0.098
   ZnOH+                 2.652e-007  2.117e-007    -6.576    -6.674    -0.098
   Zn(CO3)2-2            4.715e-009  1.914e-009    -8.327    -8.718    -0.391
   ZnOHCl                2.928e-009  2.979e-009    -8.533    -8.526     0.007
   Zn(OH)2               7.546e-010  7.677e-010    -9.122    -9.115     0.007
   ZnCl2                 3.677e-010  3.740e-010    -9.435    -9.427     0.007
   ZnCl3-                2.450e-013  1.956e-013   -12.611   -12.709    -0.098
   Zn(OH)3-              9.606e-016  7.668e-016   -15.017   -15.115    -0.098
   ZnCl4-2               1.125e-016  4.567e-017   -15.949   -16.340    -0.391
   Zn(OH)4-2             9.454e-023  3.839e-023   -22.024   -22.416    -0.391

------------------------------Saturation indices-------------------------------

	Phase               SI log IAP  log KT

	Anhydrite        -0.37   -4.73   -4.36  CaSO4
	Aragonite        -1.92  -10.26   -8.34  CaCO3
	Artinite        -11.72   -2.12    9.60  MgCO3:Mg(OH)2:3H2O
	Bianchite        -3.49   -5.25   -1.76  ZnSO4:6H2O
	Brucite          -8.62    8.22   16.84  Mg(OH)2
	Calcite          -1.78  -10.26   -8.48  CaCO3
	CO2(g)           -0.42   -1.89   -1.47  CO2
	Dolomite         -3.51  -20.60  -17.09  CaMg(CO3)2
	Dolomite(d)      -4.06  -20.60  -16.54  CaMg(CO3)2
	Epsomite         -2.67   -4.81   -2.14  MgSO4:7H2O
	Fe(OH)2.7Cl.3     5.62    2.58   -3.04  Fe(OH)2.7Cl0.3
	Fe(OH)3(a)        0.34    5.23    4.89  Fe(OH)3
	Fe3(OH)8         -1.71   18.51   20.22  Fe3(OH)8
	Goethite          6.23    5.23   -1.00  FeOOH
	Goslarite        -3.29   -5.25   -1.96  ZnSO4:7H2O
	Gypsum           -0.15   -4.73   -4.58  CaSO4:2H2O
	H2(g)           -20.40  -23.55   -3.15  H2
	H2O(g)           -1.51   -0.00    1.51  H2O
	Halite           -7.51   -5.93    1.58  NaCl
	Hematite         14.47   10.46   -4.01  Fe2O3
	Huntite         -11.32  -41.28  -29.97  CaMg3(CO3)4
	Hydromagnesite  -24.38  -33.15   -8.76  Mg5(CO3)4(OH)2:4H2O
	Jarosite-Na      -2.19   -7.47   -5.28  NaFe3(SO4)2(OH)6
	JarositeH        -4.99  -10.38   -5.39  (H3O)Fe3(SO4)2(OH)6
	Maghemite         4.08   10.46    6.39  Fe2O3
	Magnesite        -2.31  -10.34   -8.03  MgCO3
	Magnetite        14.78   18.51    3.74  Fe3O4
	Melanterite      -2.78   -4.99   -2.21  FeSO4:7H2O
	Mirabilite       -6.12   -7.23   -1.11  Na2SO4:10H2O
	Nahcolite        -4.79   -5.33   -0.55  NaHCO3
	Natron          -11.45  -12.76   -1.31  Na2CO3:10H2O
	Nesquehonite     -4.72  -10.34   -5.62  MgCO3:3H2O
	O2(g)           -42.39  -45.28   -2.89  O2
	Portlandite     -14.49    8.31   22.80  Ca(OH)2
	Siderite          0.38  -10.51  -10.89  FeCO3
	Siderite(d)(3)   -0.06  -10.51  -10.45  FeCO3
	Smithsonite      -0.78  -10.78  -10.00  ZnCO3
	Thenardite       -7.05   -7.23   -0.18  Na2SO4
	Thermonatrite   -12.88  -12.76    0.13  Na2CO3:H2O
	Trona           -17.30  -18.09   -0.80  NaHCO3:Na2CO3:2H2O
	Zincite(c)       -3.35    7.79   11.14  ZnO
	Zincosite        -8.26   -5.25    3.01  ZnSO4
	Zn(OH)2-a        -4.66    7.79   12.45  Zn(OH)2
	Zn(OH)2-b        -3.96    7.79   11.75  Zn(OH)2
	Zn(OH)2-c        -4.41    7.79   12.20  Zn(OH)2
	Zn(OH)2-e        -3.71    7.79   11.50  Zn(OH)2
	Zn(OH)2-g        -3.92    7.79   11.71  Zn(OH)2
	Zn2(OH)2SO4      -4.96    2.54    7.50  Zn2(OH)2SO4
	Zn2(OH)3Cl       -8.46    6.74   15.20  Zn2(OH)3Cl
	Zn3O(SO4)2      -21.73   -2.71   19.02  ZnO:2ZnSO4
	Zn4(OH)6SO4     -10.29   18.11   28.40  Zn4(OH)6SO4
	Zn5(OH)8Cl2     -17.24   21.26   38.50  Zn5(OH)8Cl2
	ZnCl2           -16.91   -9.88    7.03  ZnCl2
	ZnCO3:H2O        -0.52  -10.78  -10.26  ZnCO3:H2O
	ZnMetal         -38.37  -12.61   25.76  Zn
	ZnO(a)           -3.52    7.79   11.31  ZnO
	ZnSO4:H2O        -4.68   -5.25   -0.57  ZnSO4:H2O

-----------------------------------------
Beginning of batch-reaction calculations.
-----------------------------------------

Reaction step 1.

Using solution 1.	
Using pure phase assemblage 1.	
Using reaction 1.	

Reaction 1.	Irreversible reaction defined in simulation 2.

	 1.000e-002 moles of the following reaction have been added:

	                 Relative
	Reactant            moles

	CH2O                 1.00000

	                 Relative
	Element             moles
	C                    1.00000
	H                    2.00000
	O                    1.00000

-------------------------------Phase assemblage--------------------------------

                                                      Moles in assemblage
Phase                  SI log IAP  log KT      Initial       Final       Delta

Pyrite               0.00  -18.48  -18.48   1.000e+001  1.000e+001  1.078e-003
Sphalerite           0.00  -11.62  -11.62   1.000e+001  1.000e+001  3.114e-003

-----------------------------Solution composition------------------------------

	Elements           Molality       Moles

	C                2.559e-002  2.560e-002
	Ca               8.519e-003  8.521e-003
	Cl               5.949e-004  5.950e-004
	Fe               3.778e-003  3.778e-003
	Mg               7.436e-003  7.437e-003
	Na               3.320e-003  3.321e-003
	S                2.819e-002  2.819e-002
	Zn               1.129e-004  1.129e-004

----------------------------Description of solution----------------------------

                                       pH  =   5.580      Charge balance
                                       pe  =  -0.757      Adjusted to redox equilibrium
                        Activity of water  =   0.999
                           Ionic strength  =  6.573e-002
                       Mass of water (kg)  =  1.000e+000
                 Total alkalinity (eq/kg)  =  4.966e-003
                       Total CO2 (mol/kg)  =  2.559e-002
                      Temperature (deg C)  =  25.000
                  Electrical balance (eq)  = -1.893e-002
 Percent error, 100*(Cat-|An|)/(Cat+|An|)  = -26.97
                               Iterations  =  10
                                  Total H  = 1.110353e+002
                                  Total O  = 5.568407e+001

----------------------------Distribution of species----------------------------

                                                   Log       Log         Log 
   Species                 Molality    Activity  Molality  Activity     Gamma

   H+                    3.118e-006  2.628e-006    -5.506    -5.580    -0.074
   OH-                   4.723e-009  3.805e-009    -8.326    -8.420    -0.094
   H2O                   5.551e+001  9.988e-001     1.744    -0.001     0.000
C(-4)           1.325e-016
   CH4                   1.325e-016  1.345e-016   -15.878   -15.871     0.007
C(4)            2.559e-002
   CO2                   2.062e-002  2.094e-002    -1.686    -1.679     0.007
   HCO3-                 4.353e-003  3.540e-003    -2.361    -2.451    -0.090
   FeHCO3+               3.870e-004  3.118e-004    -3.412    -3.506    -0.094
   CaHCO3+               1.199e-004  9.658e-005    -3.921    -4.015    -0.094
   MgHCO3+               9.101e-005  7.332e-005    -4.041    -4.135    -0.094
   ZnHCO3+               1.200e-005  9.671e-006    -4.921    -5.015    -0.094
   NaHCO3                5.037e-006  5.114e-006    -5.298    -5.291     0.007
   FeCO3                 1.315e-006  1.335e-006    -5.881    -5.875     0.007
   ZnCO3                 2.694e-007  2.735e-007    -6.570    -6.563     0.007
   CaCO3                 2.230e-007  2.264e-007    -6.652    -6.645     0.007
   CO3-2                 1.444e-007  6.317e-008    -6.840    -7.199    -0.359
   MgCO3                 1.051e-007  1.067e-007    -6.978    -6.972     0.007
   NaCO3-                3.751e-009  3.022e-009    -8.426    -8.520    -0.094
   Zn(CO3)2-2            8.772e-010  3.694e-010    -9.057    -9.432    -0.376
Ca              8.519e-003
   Ca+2                  4.864e-003  2.139e-003    -2.313    -2.670    -0.357
   CaSO4                 3.535e-003  3.589e-003    -2.452    -2.445     0.007
   CaHCO3+               1.199e-004  9.658e-005    -3.921    -4.015    -0.094
   CaCO3                 2.230e-007  2.264e-007    -6.652    -6.645     0.007
   CaHSO4+               6.859e-008  5.525e-008    -7.164    -7.258    -0.094
   CaOH+                 1.675e-010  1.349e-010    -9.776    -9.870    -0.094
Cl              5.949e-004
   Cl-                   5.941e-004  4.721e-004    -3.226    -3.326    -0.100
   FeCl+                 7.125e-007  5.740e-007    -6.147    -6.241    -0.094
   ZnCl+                 3.423e-008  2.757e-008    -7.466    -7.560    -0.094
   ZnOHCl                1.270e-010  1.289e-010    -9.896    -9.890     0.007
   ZnCl2                 1.343e-011  1.363e-011   -10.872   -10.866     0.007
   ZnCl3-                8.962e-015  7.219e-015   -14.048   -14.142    -0.094
   ZnCl4-2               4.056e-018  1.708e-018   -17.392   -17.767    -0.376
   FeCl+2                4.977e-019  2.096e-019   -18.303   -18.679    -0.376
   FeCl2+                5.487e-022  4.420e-022   -21.261   -21.355    -0.094
   FeCl3                 2.055e-026  2.087e-026   -25.687   -25.681     0.007
Fe(2)           3.778e-003
   Fe+2                  2.091e-003  8.808e-004    -2.680    -3.055    -0.376
   FeSO4                 1.297e-003  1.317e-003    -2.887    -2.880     0.007
   FeHCO3+               3.870e-004  3.118e-004    -3.412    -3.506    -0.094
   FeCO3                 1.315e-006  1.335e-006    -5.881    -5.875     0.007
   FeCl+                 7.125e-007  5.740e-007    -6.147    -6.241    -0.094
   FeOH+                 1.314e-007  1.059e-007    -6.881    -6.975    -0.094
   FeHSO4+               2.824e-008  2.275e-008    -7.549    -7.643    -0.094
   Fe(OH)2               3.374e-013  3.425e-013   -12.472   -12.465     0.007
   Fe(OH)3-              6.004e-018  4.837e-018   -17.222   -17.315    -0.094
   Fe(HS)2               6.585e-020  6.685e-020   -19.181   -19.175     0.007
   Fe(HS)3-              2.637e-030  2.124e-030   -29.579   -29.673    -0.094
Fe(3)           5.945e-012
   Fe(OH)2+              5.638e-012  4.542e-012   -11.249   -11.343    -0.094
   Fe(OH)3               2.191e-013  2.224e-013   -12.659   -12.653     0.007
   FeOH+2                8.568e-014  3.608e-014   -13.067   -13.443    -0.376
   FeSO4+                1.683e-015  1.356e-015   -14.774   -14.868    -0.094
   Fe(SO4)2-             3.096e-016  2.494e-016   -15.509   -15.603    -0.094
   Fe+3                  1.029e-016  1.470e-017   -15.988   -16.833    -0.845
   Fe(OH)4-              9.570e-017  7.710e-017   -16.019   -16.113    -0.094
   FeCl+2                4.977e-019  2.096e-019   -18.303   -18.679    -0.376
   FeHSO4+2              2.265e-020  9.540e-021   -19.645   -20.020    -0.376
   FeCl2+                5.487e-022  4.420e-022   -21.261   -21.355    -0.094
   Fe2(OH)2+4            1.114e-024  3.505e-026   -23.953   -25.455    -1.502
   FeCl3                 2.055e-026  2.087e-026   -25.687   -25.681     0.007
   Fe3(OH)4+5            7.396e-033  3.325e-035   -32.131   -34.478    -2.347
H(0)            3.152e-013
   H2                    1.576e-013  1.600e-013   -12.802   -12.796     0.007
Mg              7.436e-003
   Mg+2                  3.907e-003  1.770e-003    -2.408    -2.752    -0.344
   MgSO4                 3.437e-003  3.490e-003    -2.464    -2.457     0.007
   MgHCO3+               9.101e-005  7.332e-005    -4.041    -4.135    -0.094
   MgCO3                 1.051e-007  1.067e-007    -6.978    -6.972     0.007
   MgOH+                 3.032e-009  2.443e-009    -8.518    -8.612    -0.094
Na              3.320e-003
   Na+                   3.181e-003  2.569e-003    -2.497    -2.590    -0.093
   NaSO4-                1.344e-004  1.083e-004    -3.872    -3.965    -0.094
   NaHCO3                5.037e-006  5.114e-006    -5.298    -5.291     0.007
   NaCO3-                3.751e-009  3.022e-009    -8.426    -8.520    -0.094
O(0)            0.000e+000
   O2                    0.000e+000  0.000e+000   -66.796   -66.789     0.007
S(-2)           6.970e-012
   H2S                   6.604e-012  6.705e-012   -11.180   -11.174     0.007
   HS-                   3.622e-013  2.918e-013   -12.441   -12.535    -0.094
   Zn(HS)2               1.585e-015  1.610e-015   -14.800   -14.793     0.007
   S5-2                  5.133e-017  2.822e-017   -16.290   -16.549    -0.260
   S4-2                  3.163e-017  1.646e-017   -16.500   -16.783    -0.284
   S6-2                  2.537e-017  1.461e-017   -16.596   -16.835    -0.240
   Fe(HS)2               6.585e-020  6.685e-020   -19.181   -19.175     0.007
   S-2                   3.185e-020  1.341e-020   -19.497   -19.872    -0.376
   S3-2                  1.190e-020  5.801e-021   -19.924   -20.236    -0.312
   S2-2                  7.163e-022  3.293e-022   -21.145   -21.482    -0.338
   Zn(HS)3-              8.428e-027  6.789e-027   -26.074   -26.168    -0.094
   Fe(HS)3-              2.637e-030  2.124e-030   -29.579   -29.673    -0.094
S(6)            2.819e-002
   SO4-2                 1.972e-002  8.409e-003    -1.705    -2.075    -0.370
   CaSO4                 3.535e-003  3.589e-003    -2.452    -2.445     0.007
   MgSO4                 3.437e-003  3.490e-003    -2.464    -2.457     0.007
   FeSO4                 1.297e-003  1.317e-003    -2.887    -2.880     0.007
   NaSO4-                1.344e-004  1.083e-004    -3.872    -3.965    -0.094
   ZnSO4                 4.214e-005  4.278e-005    -4.375    -4.369     0.007
   Zn(SO4)2-2            6.943e-006  2.924e-006    -5.158    -5.534    -0.376
   HSO4-                 2.667e-006  2.148e-006    -5.574    -5.668    -0.094
   CaHSO4+               6.859e-008  5.525e-008    -7.164    -7.258    -0.094
   FeHSO4+               2.824e-008  2.275e-008    -7.549    -7.643    -0.094
   FeSO4+                1.683e-015  1.356e-015   -14.774   -14.868    -0.094
   Fe(SO4)2-             3.096e-016  2.494e-016   -15.509   -15.603    -0.094
   FeHSO4+2              2.265e-020  9.540e-021   -19.645   -20.020    -0.376
Zn              1.129e-004
   Zn+2                  5.152e-005  2.170e-005    -4.288    -4.664    -0.376
   ZnSO4                 4.214e-005  4.278e-005    -4.375    -4.369     0.007
   ZnHCO3+               1.200e-005  9.671e-006    -4.921    -5.015    -0.094
   Zn(SO4)2-2            6.943e-006  2.924e-006    -5.158    -5.534    -0.376
   ZnCO3                 2.694e-007  2.735e-007    -6.570    -6.563     0.007
   ZnCl+                 3.423e-008  2.757e-008    -7.466    -7.560    -0.094
   ZnOH+                 1.123e-008  9.044e-009    -7.950    -8.044    -0.094
   Zn(CO3)2-2            8.772e-010  3.694e-010    -9.057    -9.432    -0.376
   ZnOHCl                1.270e-010  1.289e-010    -9.896    -9.890     0.007
   Zn(OH)2               3.888e-011  3.947e-011   -10.410   -10.404     0.007
   ZnCl2                 1.343e-011  1.363e-011   -10.872   -10.866     0.007
   ZnCl3-                8.962e-015  7.219e-015   -14.048   -14.142    -0.094
   Zn(HS)2               1.585e-015  1.610e-015   -14.800   -14.793     0.007
   Zn(OH)3-              5.889e-017  4.744e-017   -16.230   -16.324    -0.094
   ZnCl4-2               4.056e-018  1.708e-018   -17.392   -17.767    -0.376
   Zn(OH)4-2             6.786e-024  2.858e-024   -23.168   -23.544    -0.376
   Zn(HS)3-              8.428e-027  6.789e-027   -26.074   -26.168    -0.094

------------------------------Saturation indices-------------------------------

	Phase               SI log IAP  log KT

	Anhydrite        -0.38   -4.74   -4.36  CaSO4
	Aragonite        -1.53   -9.87   -8.34  CaCO3
	Artinite        -11.15   -1.55    9.60  MgCO3:Mg(OH)2:3H2O
	Bianchite        -4.98   -6.74   -1.76  ZnSO4:6H2O
	Brucite          -8.43    8.41   16.84  Mg(OH)2
	Calcite          -1.39   -9.87   -8.48  CaCO3
	CH4(g)          -13.01  -15.87   -2.86  CH4
	CO2(g)           -0.21   -1.68   -1.47  CO2
	Dolomite         -2.73  -19.82  -17.09  CaMg(CO3)2
	Dolomite(d)      -3.28  -19.82  -16.54  CaMg(CO3)2
	Epsomite         -2.69   -4.83   -2.14  MgSO4:7H2O
	Fe(OH)2.7Cl.3     0.28   -2.76   -3.04  Fe(OH)2.7Cl0.3
	Fe(OH)3(a)       -4.98   -0.09    4.89  Fe(OH)3
	Fe3(OH)8        -12.30    7.92   20.22  Fe3(OH)8
	FeS(ppt)         -6.09  -10.01   -3.92  FeS
	Goethite          0.91   -0.09   -1.00  FeOOH
	Goslarite        -4.78   -6.74   -1.96  ZnSO4:7H2O
	Greigite        -19.50  -64.54  -45.03  Fe3S4
	Gypsum           -0.17   -4.75   -4.58  CaSO4:2H2O
	H2(g)            -9.65  -12.80   -3.15  H2
	H2O(g)           -1.51   -0.00    1.51  H2O
	H2S(g)          -10.18  -11.17   -1.00  H2S
	Halite           -7.50   -5.92    1.58  NaCl
	Hematite          3.82   -0.18   -4.01  Fe2O3
	Huntite          -9.76  -39.72  -29.97  CaMg3(CO3)4
	Hydromagnesite  -22.64  -31.40   -8.76  Mg5(CO3)4(OH)2:4H2O
	Jarosite-Na     -18.48  -23.76   -5.28  NaFe3(SO4)2(OH)6
	JarositeH       -21.36  -26.75   -5.39  (H3O)Fe3(SO4)2(OH)6
	Mackinawite      -5.36  -10.01   -4.65  FeS
	Maghemite        -6.57   -0.18    6.39  Fe2O3
	Magnesite        -1.92   -9.95   -8.03  MgCO3
	Magnetite         4.18    7.92    3.74  Fe3O4
	Melanterite      -2.92   -5.13   -2.21  FeSO4:7H2O
	Mirabilite       -6.15   -7.26   -1.11  Na2SO4:10H2O
	Nahcolite        -4.49   -5.04   -0.55  NaHCO3
	Natron          -11.07  -12.39   -1.31  Na2CO3:10H2O
	Nesquehonite     -4.33   -9.95   -5.62  MgCO3:3H2O
	O2(g)           -63.90  -66.79   -2.89  O2
	Portlandite     -14.31    8.49   22.80  Ca(OH)2
	Pyrite            0.00  -18.48  -18.48  FeS2
	Siderite          0.64  -10.25  -10.89  FeCO3
	Siderite(d)(3)    0.20  -10.25  -10.45  FeCO3
	Smithsonite      -1.86  -11.86  -10.00  ZnCO3
	Sphalerite        0.00  -11.62  -11.62  ZnS
	Sulfur           -6.36  -21.39  -15.03  S
	Thenardite       -7.08   -7.26   -0.18  Na2SO4
	Thermonatrite   -12.51  -12.38    0.13  Na2CO3:H2O
	Trona           -16.63  -17.42   -0.80  NaHCO3:Na2CO3:2H2O
	Wurtzite         -1.94  -11.62   -9.68  ZnS
	Zincite(c)       -4.64    6.50   11.14  ZnO
	Zincosite        -9.75   -6.74    3.01  ZnSO4
	Zn(OH)2-a        -5.95    6.50   12.45  Zn(OH)2
	Zn(OH)2-b        -5.25    6.50   11.75  Zn(OH)2
	Zn(OH)2-c        -5.70    6.50   12.20  Zn(OH)2
	Zn(OH)2-e        -5.00    6.50   11.50  Zn(OH)2
	Zn(OH)2-g        -5.21    6.50   11.71  Zn(OH)2
	Zn2(OH)2SO4      -7.74   -0.24    7.50  Zn2(OH)2SO4
	Zn2(OH)3Cl      -11.11    4.09   15.20  Zn2(OH)3Cl
	Zn3O(SO4)2      -26.00   -6.98   19.02  ZnO:2ZnSO4
	Zn4(OH)6SO4     -15.65   12.75   28.40  Zn4(OH)6SO4
	Zn5(OH)8Cl2     -23.83   14.67   38.50  Zn5(OH)8Cl2
	ZnCl2           -18.35  -11.32    7.03  ZnCl2
	ZnCO3:H2O        -1.60  -11.86  -10.26  ZnCO3:H2O
	ZnMetal         -28.91   -3.15   25.76  Zn
	ZnO(a)           -4.81    6.50   11.31  ZnO
	ZnS(a)           -2.57  -11.62   -9.05  ZnS
	ZnSO4:H2O        -6.17   -6.74   -0.57  ZnSO4:H2O

Reaction step 2.

Using solution 1.	
Using pure phase assemblage 1.	
Using reaction 1.	

Reaction 1.	Irreversible reaction defined in simulation 2.

	 2.000e-002 moles of the following reaction have been added:

	                 Relative
	Reactant            moles

	CH2O                 1.00000

	                 Relative
	Element             moles
	C                    1.00000
	H                    2.00000
	O                    1.00000

-------------------------------Phase assemblage--------------------------------

                                                      Moles in assemblage
Phase                  SI log IAP  log KT      Initial       Final       Delta

Pyrite               0.00  -18.48  -18.48   1.000e+001  1.000e+001  3.885e-003
Sphalerite          -0.00  -11.62  -11.62   1.000e+001  1.000e+001  3.202e-003

-----------------------------Solution composition------------------------------

	Elements           Molality       Moles

	C                3.559e-002  3.560e-002
	Ca               8.518e-003  8.521e-003
	Cl               5.948e-004  5.950e-004
	Fe               9.714e-004  9.717e-004
	Mg               7.435e-003  7.437e-003
	Na               3.320e-003  3.321e-003
	S                2.248e-002  2.249e-002
	Zn               2.490e-005  2.491e-005

----------------------------Description of solution----------------------------

                                       pH  =   5.855      Charge balance
                                       pe  =  -1.126      Adjusted to redox equilibrium
                        Activity of water  =   0.999
                           Ionic strength  =  5.823e-002
                       Mass of water (kg)  =  1.000e+000
                 Total alkalinity (eq/kg)  =  1.058e-002
                       Total CO2 (mol/kg)  =  3.559e-002
                      Temperature (deg C)  =  25.000
                  Electrical balance (eq)  = -1.893e-002
 Percent error, 100*(Cat-|An|)/(Cat+|An|)  = -28.90
                               Iterations  =  11
                                  Total H  = 1.110553e+002
                                  Total O  = 5.569407e+001

----------------------------Distribution of species----------------------------

                                                   Log       Log         Log 
   Species                 Molality    Activity  Molality  Activity     Gamma

   H+                    1.648e-006  1.397e-006    -5.783    -5.855    -0.072
   OH-                   8.809e-009  7.158e-009    -8.055    -8.145    -0.090
   H2O                   5.551e+001  9.988e-001     1.744    -0.001     0.000
C(-4)           9.137e-016
   CH4                   9.137e-016  9.260e-016   -15.039   -15.033     0.006
C(4)            3.559e-002
   CO2                   2.501e-002  2.535e-002    -1.602    -1.596     0.006
   HCO3-                 9.829e-003  8.062e-003    -2.008    -2.094    -0.086
   CaHCO3+               2.909e-004  2.364e-004    -3.536    -3.626    -0.090
   MgHCO3+               2.226e-004  1.809e-004    -3.652    -3.743    -0.090
   FeHCO3+               2.132e-004  1.732e-004    -3.671    -3.761    -0.090
   NaHCO3                1.165e-005  1.180e-005    -4.934    -4.928     0.006
   ZnHCO3+               5.726e-006  4.653e-006    -5.242    -5.332    -0.090
   FeCO3                 1.377e-006  1.395e-006    -5.861    -5.855     0.006
   CaCO3                 1.029e-006  1.043e-006    -5.988    -5.982     0.006
   CO3-2                 5.980e-007  2.707e-007    -6.223    -6.568    -0.344
   MgCO3                 4.888e-007  4.953e-007    -6.311    -6.305     0.006
   ZnCO3                 2.443e-007  2.476e-007    -6.612    -6.606     0.006
   NaCO3-                1.615e-008  1.312e-008    -7.792    -7.882    -0.090
   Zn(CO3)2-2            3.286e-009  1.433e-009    -8.483    -8.844    -0.360
Ca              8.518e-003
   Ca+2                  5.059e-003  2.299e-003    -2.296    -2.638    -0.343
   CaSO4                 3.167e-003  3.210e-003    -2.499    -2.494     0.006
   CaHCO3+               2.909e-004  2.364e-004    -3.536    -3.626    -0.090
   CaCO3                 1.029e-006  1.043e-006    -5.988    -5.982     0.006
   CaHSO4+               3.232e-008  2.627e-008    -7.490    -7.581    -0.090
   CaOH+                 3.358e-010  2.728e-010    -9.474    -9.564    -0.090
Cl              5.948e-004
   Cl-                   5.946e-004  4.774e-004    -3.226    -3.321    -0.095
   FeCl+                 1.743e-007  1.416e-007    -6.759    -6.849    -0.090
   ZnCl+                 7.250e-009  5.892e-009    -8.140    -8.230    -0.090
   ZnOHCl                5.114e-011  5.183e-011   -10.291   -10.285     0.006
   ZnCl2                 2.906e-012  2.945e-012   -11.537   -11.531     0.006
   ZnCl3-                1.941e-015  1.578e-015   -14.712   -14.802    -0.090
   ZnCl4-2               8.657e-019  3.775e-019   -18.063   -18.423    -0.360
   FeCl+2                5.073e-020  2.212e-020   -19.295   -19.655    -0.360
   FeCl2+                5.805e-023  4.718e-023   -22.236   -22.326    -0.090
   FeCl3                 2.222e-027  2.252e-027   -26.653   -26.647     0.006
Fe(2)           9.714e-004
   Fe+2                  4.928e-004  2.149e-004    -3.307    -3.668    -0.360
   FeSO4                 2.638e-004  2.674e-004    -3.579    -3.573     0.006
   FeHCO3+               2.132e-004  1.732e-004    -3.671    -3.761    -0.090
   FeCO3                 1.377e-006  1.395e-006    -5.861    -5.855     0.006
   FeCl+                 1.743e-007  1.416e-007    -6.759    -6.849    -0.090
   FeOH+                 5.979e-008  4.859e-008    -7.223    -7.313    -0.090
   FeHSO4+               3.021e-009  2.455e-009    -8.520    -8.610    -0.090
   Fe(OH)2               2.918e-013  2.957e-013   -12.535   -12.529     0.006
   Fe(OH)3-              9.667e-018  7.856e-018   -17.015   -17.105    -0.090
   Fe(HS)2               1.019e-019  1.032e-019   -18.992   -18.986     0.006
   Fe(HS)3-              1.016e-029  8.254e-030   -28.993   -29.083    -0.090
Fe(3)           2.233e-012
   Fe(OH)2+              2.064e-012  1.677e-012   -11.685   -11.775    -0.090
   Fe(OH)3               1.524e-013  1.545e-013   -12.817   -12.811     0.006
   FeOH+2                1.624e-014  7.084e-015   -13.789   -14.150    -0.360
   FeSO4+                1.449e-016  1.177e-016   -15.839   -15.929    -0.090
   Fe(OH)4-              1.240e-016  1.008e-016   -15.907   -15.997    -0.090
   Fe(SO4)2-             2.217e-017  1.802e-017   -16.654   -16.744    -0.090
   Fe+3                  9.929e-018  1.534e-018   -17.003   -17.814    -0.811
   FeCl+2                5.073e-020  2.212e-020   -19.295   -19.655    -0.360
   FeHSO4+2              1.010e-021  4.403e-022   -20.996   -21.356    -0.360
   FeCl2+                5.805e-023  4.718e-023   -22.236   -22.326    -0.090
   Fe2(OH)2+4            3.735e-026  1.351e-027   -25.428   -26.869    -1.442
   FeCl3                 2.222e-027  2.252e-027   -26.653   -26.647     0.006
   Fe3(OH)4+5            8.470e-035  4.733e-037   -34.072   -36.325    -2.253
H(0)            4.876e-013
   H2                    2.438e-013  2.471e-013   -12.613   -12.607     0.006
Mg              7.435e-003
   Mg+2                  4.108e-003  1.918e-003    -2.386    -2.717    -0.331
   MgSO4                 3.104e-003  3.146e-003    -2.508    -2.502     0.006
   MgHCO3+               2.226e-004  1.809e-004    -3.652    -3.743    -0.090
   MgCO3                 4.888e-007  4.953e-007    -6.311    -6.305     0.006
   MgOH+                 6.127e-009  4.979e-009    -8.213    -8.303    -0.090
Na              3.320e-003
   Na+                   3.196e-003  2.604e-003    -2.495    -2.584    -0.089
   NaSO4-                1.124e-004  9.131e-005    -3.949    -4.040    -0.090
   NaHCO3                1.165e-005  1.180e-005    -4.934    -4.928     0.006
   NaCO3-                1.615e-008  1.312e-008    -7.792    -7.882    -0.090
O(0)            0.000e+000
   O2                    0.000e+000  0.000e+000   -67.173   -67.167     0.006
S(-2)           9.757e-012
   H2S                   8.847e-012  8.967e-012   -11.053   -11.047     0.006
   HS-                   9.035e-013  7.342e-013   -12.044   -12.134    -0.090
   Zn(HS)2               2.124e-015  2.153e-015   -14.673   -14.667     0.006
   S5-2                  2.386e-016  1.336e-016   -15.622   -15.874    -0.252
   S4-2                  1.465e-016  7.792e-017   -15.834   -16.108    -0.274
   S6-2                  1.182e-016  6.913e-017   -15.927   -16.160    -0.233
   S-2                   1.456e-019  6.348e-020   -18.837   -19.197    -0.360
   Fe(HS)2               1.019e-019  1.032e-019   -18.992   -18.986     0.006
   S3-2                  5.490e-020  2.746e-020   -19.260   -19.561    -0.301
   S2-2                  3.290e-021  1.558e-021   -20.483   -20.807    -0.324
   Zn(HS)3-              2.811e-026  2.284e-026   -25.551   -25.641    -0.090
   Fe(HS)3-              1.016e-029  8.254e-030   -28.993   -29.083    -0.090
S(6)            2.248e-002
   SO4-2                 1.583e-002  6.997e-003    -1.801    -2.155    -0.354
   CaSO4                 3.167e-003  3.210e-003    -2.499    -2.494     0.006
   MgSO4                 3.104e-003  3.146e-003    -2.508    -2.502     0.006
   FeSO4                 2.638e-004  2.674e-004    -3.579    -3.573     0.006
   NaSO4-                1.124e-004  9.131e-005    -3.949    -4.040    -0.090
   ZnSO4                 7.420e-006  7.520e-006    -5.130    -5.124     0.006
   HSO4-                 1.169e-006  9.502e-007    -5.932    -6.022    -0.090
   Zn(SO4)2-2            9.808e-007  4.277e-007    -6.008    -6.369    -0.360
   CaHSO4+               3.232e-008  2.627e-008    -7.490    -7.581    -0.090
   FeHSO4+               3.021e-009  2.455e-009    -8.520    -8.610    -0.090
   FeSO4+                1.449e-016  1.177e-016   -15.839   -15.929    -0.090
   Fe(SO4)2-             2.217e-017  1.802e-017   -16.654   -16.744    -0.090
   FeHSO4+2              1.010e-021  4.403e-022   -20.996   -21.356    -0.360
Zn              2.490e-005
   Zn+2                  1.051e-005  4.585e-006    -4.978    -5.339    -0.360
   ZnSO4                 7.420e-006  7.520e-006    -5.130    -5.124     0.006
   ZnHCO3+               5.726e-006  4.653e-006    -5.242    -5.332    -0.090
   Zn(SO4)2-2            9.808e-007  4.277e-007    -6.008    -6.369    -0.360
   ZnCO3                 2.443e-007  2.476e-007    -6.612    -6.606     0.006
   ZnCl+                 7.250e-009  5.892e-009    -8.140    -8.230    -0.090
   ZnOH+                 4.424e-009  3.595e-009    -8.354    -8.444    -0.090
   Zn(CO3)2-2            3.286e-009  1.433e-009    -8.483    -8.844    -0.360
   ZnOHCl                5.114e-011  5.183e-011   -10.291   -10.285     0.006
   Zn(OH)2               2.912e-011  2.951e-011   -10.536   -10.530     0.006
   ZnCl2                 2.906e-012  2.945e-012   -11.537   -11.531     0.006
   Zn(HS)2               2.124e-015  2.153e-015   -14.673   -14.667     0.006
   ZnCl3-                1.941e-015  1.578e-015   -14.712   -14.802    -0.090
   Zn(OH)3-              8.212e-017  6.673e-017   -16.086   -16.176    -0.090
   ZnCl4-2               8.657e-019  3.775e-019   -18.063   -18.423    -0.360
   Zn(OH)4-2             1.734e-023  7.562e-024   -22.761   -23.121    -0.360
   Zn(HS)3-              2.811e-026  2.284e-026   -25.551   -25.641    -0.090

------------------------------Saturation indices-------------------------------

	Phase               SI log IAP  log KT

	Anhydrite        -0.43   -4.79   -4.36  CaSO4
	Aragonite        -0.87   -9.21   -8.34  CaCO3
	Artinite         -9.89   -0.29    9.60  MgCO3:Mg(OH)2:3H2O
	Bianchite        -5.73   -7.50   -1.76  ZnSO4:6H2O
	Brucite          -7.85    8.99   16.84  Mg(OH)2
	Calcite          -0.73   -9.21   -8.48  CaCO3
	CH4(g)          -12.17  -15.03   -2.86  CH4
	CO2(g)           -0.13   -1.60   -1.47  CO2
	Dolomite         -1.40  -18.49  -17.09  CaMg(CO3)2
	Dolomite(d)      -1.95  -18.49  -16.54  CaMg(CO3)2
	Epsomite         -2.74   -4.88   -2.14  MgSO4:7H2O
	Fe(OH)2.7Cl.3     0.04   -3.00   -3.04  Fe(OH)2.7Cl0.3
	Fe(OH)3(a)       -5.14   -0.25    4.89  Fe(OH)3
	Fe3(OH)8        -12.68    7.54   20.22  Fe3(OH)8
	FeS(ppt)         -6.03   -9.95   -3.92  FeS
	Goethite          0.75   -0.25   -1.00  FeOOH
	Goslarite        -5.54   -7.50   -1.96  ZnSO4:7H2O
	Greigite        -19.38  -64.41  -45.03  Fe3S4
	Gypsum           -0.21   -4.79   -4.58  CaSO4:2H2O
	H2(g)            -9.46  -12.61   -3.15  H2
	H2O(g)           -1.51   -0.00    1.51  H2O
	H2S(g)          -10.05  -11.05   -1.00  H2S
	Halite           -7.49   -5.91    1.58  NaCl
	Hematite          3.51   -0.50   -4.01  Fe2O3
	Huntite          -7.09  -37.06  -29.97  CaMg3(CO3)4
	Hydromagnesite  -19.39  -28.15   -8.76  Mg5(CO3)4(OH)2:4H2O
	Jarosite-Na     -19.93  -25.21   -5.28  NaFe3(SO4)2(OH)6
	JarositeH       -23.09  -28.48   -5.39  (H3O)Fe3(SO4)2(OH)6
	Mackinawite      -5.30   -9.95   -4.65  FeS
	Maghemite        -6.89   -0.50    6.39  Fe2O3
	Magnesite        -1.26   -9.28   -8.03  MgCO3
	Magnetite         3.80    7.54    3.74  Fe3O4
	Melanterite      -3.62   -5.83   -2.21  FeSO4:7H2O
	Mirabilite       -6.22   -7.33   -1.11  Na2SO4:10H2O
	Nahcolite        -4.13   -4.68   -0.55  NaHCO3
	Natron          -10.43  -11.74   -1.31  Na2CO3:10H2O
	Nesquehonite     -3.67   -9.29   -5.62  MgCO3:3H2O
	O2(g)           -64.27  -67.17   -2.89  O2
	Portlandite     -13.73    9.07   22.80  Ca(OH)2
	Pyrite            0.00  -18.48  -18.48  FeS2
	Siderite          0.65  -10.24  -10.89  FeCO3
	Siderite(d)(3)    0.21  -10.24  -10.45  FeCO3
	Smithsonite      -1.91  -11.91  -10.00  ZnCO3
	Sphalerite       -0.00  -11.62  -11.62  ZnS
	Sulfur           -6.42  -21.45  -15.03  S
	Thenardite       -7.14   -7.32   -0.18  Na2SO4
	Thermonatrite   -11.86  -11.74    0.13  Na2CO3:H2O
	Trona           -15.62  -16.42   -0.80  NaHCO3:Na2CO3:2H2O
	Wurtzite         -1.94  -11.62   -9.68  ZnS
	Zincite(c)       -4.77    6.37   11.14  ZnO
	Zincosite       -10.50   -7.49    3.01  ZnSO4
	Zn(OH)2-a        -6.08    6.37   12.45  Zn(OH)2
	Zn(OH)2-b        -5.38    6.37   11.75  Zn(OH)2
	Zn(OH)2-c        -5.83    6.37   12.20  Zn(OH)2
	Zn(OH)2-e        -5.13    6.37   11.50  Zn(OH)2
	Zn(OH)2-g        -5.34    6.37   11.71  Zn(OH)2
	Zn2(OH)2SO4      -8.62   -1.12    7.50  Zn2(OH)2SO4
	Zn2(OH)3Cl      -11.64    3.56   15.20  Zn2(OH)3Cl
	Zn3O(SO4)2      -27.64   -8.62   19.02  ZnO:2ZnSO4
	Zn4(OH)6SO4     -16.78   11.62   28.40  Zn4(OH)6SO4
	Zn5(OH)8Cl2     -25.00   13.50   38.50  Zn5(OH)8Cl2
	ZnCl2           -19.01  -11.98    7.03  ZnCl2
	ZnCO3:H2O        -1.65  -11.91  -10.26  ZnCO3:H2O
	ZnMetal         -28.84   -3.09   25.76  Zn
	ZnO(a)           -4.94    6.37   11.31  ZnO
	ZnS(a)           -2.57  -11.62   -9.05  ZnS
	ZnSO4:H2O        -6.92   -7.49   -0.57  ZnSO4:H2O

Reaction step 3.

Using solution 1.	
Using pure phase assemblage 1.	
Using reaction 1.	

Reaction 1.	Irreversible reaction defined in simulation 2.

	 3.000e-002 moles of the following reaction have been added:

	                 Relative
	Reactant            moles

	CH2O                 1.00000

	                 Relative
	Element             moles
	C                    1.00000
	H                    2.00000
	O                    1.00000

-------------------------------Phase assemblage--------------------------------

                                                      Moles in assemblage
Phase                  SI log IAP  log KT      Initial       Final       Delta

Pyrite               0.00  -18.48  -18.48   1.000e+001  1.000e+001  4.856e-003
Sphalerite           0.00  -11.62  -11.62   1.000e+001  1.000e+001  3.226e-003

-----------------------------Solution composition------------------------------

	Elements           Molality       Moles

	C                4.558e-002  4.560e-002
	Ca               8.518e-003  8.521e-003
	Cl               5.948e-004  5.950e-004
	Fe               2.042e-017  2.042e-017
	Mg               7.434e-003  7.437e-003
	Na               3.319e-003  3.321e-003
	S                2.051e-002  2.052e-002
	Zn               6.761e-007  6.763e-007

----------------------------Description of solution----------------------------

                                       pH  =   6.076      Charge balance
                                       pe  =  -2.480      Adjusted to redox equilibrium
                        Activity of water  =   0.999
                           Ionic strength  =  5.485e-002
                       Mass of water (kg)  =  1.000e+000
                 Total alkalinity (eq/kg)  =  1.907e-002
                       Total CO2 (mol/kg)  =  4.558e-002
                      Temperature (deg C)  =  25.000
                  Electrical balance (eq)  = -1.893e-002
 Percent error, 100*(Cat-|An|)/(Cat+|An|)  = -28.53
                               Iterations  =  18
                                  Total H  = 1.110753e+002
                                  Total O  = 5.570407e+001

----------------------------Distribution of species----------------------------

                                                   Log       Log         Log 
   Species                 Molality    Activity  Molality  Activity     Gamma

   H+                    9.871e-007  8.392e-007    -6.006    -6.076    -0.070
   OH-                   1.460e-008  1.191e-008    -7.836    -7.924    -0.088
   H2O                   5.551e+001  9.986e-001     1.744    -0.001     0.000
C(-4)           1.123e-006
   CH4                   1.123e-006  1.137e-006    -5.950    -5.944     0.005
C(4)            4.558e-002
   CO2                   2.699e-002  2.734e-002    -1.569    -1.563     0.005
   HCO3-                 1.757e-002  1.447e-002    -1.755    -1.840    -0.084
   CaHCO3+               5.580e-004  4.554e-004    -3.253    -3.342    -0.088
   MgHCO3+               4.329e-004  3.533e-004    -3.364    -3.452    -0.088
   NaHCO3                2.111e-005  2.138e-005    -4.675    -4.670     0.005
   CaCO3                 3.300e-006  3.342e-006    -5.481    -5.476     0.005
   CO3-2                 1.757e-006  8.085e-007    -5.755    -6.092    -0.337
   MgCO3                 1.590e-006  1.610e-006    -5.799    -5.793     0.005
   NaCO3-                4.848e-008  3.956e-008    -7.314    -7.403    -0.088
   ZnHCO3+               1.169e-014  9.543e-015   -13.932   -14.020    -0.088
   ZnCO3                 8.346e-016  8.452e-016   -15.079   -15.073     0.005
   Zn(CO3)2-2            3.294e-017  1.461e-017   -16.482   -16.835    -0.353
   FeHCO3+               2.532e-019  2.066e-019   -18.597   -18.685    -0.088
   FeCO3                 2.735e-021  2.769e-021   -20.563   -20.558     0.005
Ca              8.518e-003
   Ca+2                  5.344e-003  2.468e-003    -2.272    -2.608    -0.336
   CaSO4                 2.613e-003  2.646e-003    -2.583    -2.577     0.005
   CaHCO3+               5.580e-004  4.554e-004    -3.253    -3.342    -0.088
   CaCO3                 3.300e-006  3.342e-006    -5.481    -5.476     0.005
   CaHSO4+               1.594e-008  1.301e-008    -7.797    -7.886    -0.088
   CaOH+                 5.971e-010  4.873e-010    -9.224    -9.312    -0.088
Cl              5.948e-004
   Cl-                   5.948e-004  4.799e-004    -3.226    -3.319    -0.093
   ZnCl+                 8.293e-018  6.768e-018   -17.081   -17.170    -0.088
   ZnOHCl                9.784e-020  9.908e-020   -19.010   -19.004     0.005
   ZnCl2                 3.359e-021  3.401e-021   -20.474   -20.468     0.005
   FeCl+                 1.159e-022  9.460e-023   -21.936   -22.024    -0.088
   ZnCl3-                2.244e-024  1.832e-024   -23.649   -23.737    -0.088
   ZnCl4-2               9.933e-028  4.406e-028   -27.003   -27.356    -0.353
   FeCl+2                1.477e-036  6.551e-037   -35.831   -36.184    -0.353
   FeCl2+                1.721e-039  1.404e-039   -38.764   -38.853    -0.088
   FeCl3                 0.000e+000  0.000e+000   -43.177   -43.171     0.005
Fe(2)           2.042e-017
   Fe(HS)2               1.873e-017  1.896e-017   -16.728   -16.722     0.005
   Fe(HS)3-              9.768e-019  7.971e-019   -18.010   -18.098    -0.088
   Fe+2                  3.219e-019  1.428e-019   -18.492   -18.845    -0.353
   FeHCO3+               2.532e-019  2.066e-019   -18.597   -18.685    -0.088
   FeSO4                 1.348e-019  1.365e-019   -18.870   -18.865     0.005
   FeCO3                 2.735e-021  2.769e-021   -20.563   -20.558     0.005
   FeCl+                 1.159e-022  9.460e-023   -21.936   -22.024    -0.088
   FeOH+                 6.584e-023  5.373e-023   -22.182   -22.270    -0.088
   FeHSO4+               9.225e-025  7.529e-025   -24.035   -24.123    -0.088
   Fe(OH)2               5.374e-028  5.442e-028   -27.270   -27.264     0.005
   Fe(OH)3-              2.948e-032  2.406e-032   -31.530   -31.619    -0.088
Fe(3)           1.892e-028
   Fe(OH)2+              1.677e-028  1.368e-028   -27.776   -27.864    -0.088
   Fe(OH)3               2.071e-029  2.097e-029   -28.684   -28.678     0.005
   FeOH+2                7.829e-031  3.473e-031   -30.106   -30.459    -0.353
   Fe(OH)4-              2.789e-032  2.276e-032   -31.555   -31.643    -0.088
   FeSO4+                3.264e-033  2.664e-033   -32.486   -32.575    -0.088
   Fe(SO4)2-             3.838e-034  3.132e-034   -33.416   -33.504    -0.088
   Fe+3                  2.815e-034  4.520e-035   -33.550   -34.345    -0.794
   FeCl+2                1.477e-036  6.551e-037   -35.831   -36.184    -0.353
   FeHSO4+2              1.350e-038  5.986e-039   -37.870   -38.223    -0.353
   FeCl2+                1.721e-039  1.404e-039   -38.764   -38.853    -0.088
   FeCl3                 0.000e+000  0.000e+000   -43.177   -43.171     0.005
   Fe2(OH)2+4            0.000e+000  0.000e+000   -58.076   -59.489    -1.412
   Fe3(OH)4+5            0.000e+000  0.000e+000   -82.826   -85.033    -2.207
H(0)            8.963e-011
   H2                    4.482e-011  4.539e-011   -10.349   -10.343     0.005
Mg              7.434e-003
   Mg+2                  4.404e-003  2.087e-003    -2.356    -2.681    -0.324
   MgSO4                 2.596e-003  2.629e-003    -2.586    -2.580     0.005
   MgHCO3+               4.329e-004  3.533e-004    -3.364    -3.452    -0.088
   MgCO3                 1.590e-006  1.610e-006    -5.799    -5.793     0.005
   MgOH+                 1.105e-008  9.015e-009    -7.957    -8.045    -0.088
Na              3.319e-003
   Na+                   3.212e-003  2.628e-003    -2.493    -2.580    -0.087
   NaSO4-                8.674e-005  7.079e-005    -4.062    -4.150    -0.088
   NaHCO3                2.111e-005  2.138e-005    -4.675    -4.670     0.005
   NaCO3-                4.848e-008  3.956e-008    -7.314    -7.403    -0.088
O(0)            0.000e+000
   O2                    0.000e+000  0.000e+000   -71.701   -71.695     0.005
S(-2)           3.274e-003
   H2S                   2.797e-003  2.833e-003    -2.553    -2.548     0.005
   HS-                   4.730e-004  3.860e-004    -3.325    -3.413    -0.088
   Zn(HS)2               6.715e-007  6.800e-007    -6.173    -6.167     0.005
   S5-2                  2.070e-007  1.169e-007    -6.684    -6.932    -0.248
   S4-2                  1.269e-007  6.819e-008    -6.897    -7.166    -0.270
   S6-2                  1.027e-007  6.050e-008    -6.988    -7.218    -0.230
   Zn(HS)3-              4.649e-009  3.794e-009    -8.333    -8.421    -0.088
   S-2                   1.253e-010  5.556e-011    -9.902   -10.255    -0.353
   S3-2                  4.744e-011  2.403e-011   -10.324   -10.619    -0.295
   S2-2                  2.837e-012  1.364e-012   -11.547   -11.865    -0.318
   Fe(HS)2               1.873e-017  1.896e-017   -16.728   -16.722     0.005
   Fe(HS)3-              9.768e-019  7.971e-019   -18.010   -18.098    -0.088
S(6)            1.724e-002
   SO4-2                 1.194e-002  5.375e-003    -1.923    -2.270    -0.347
   CaSO4                 2.613e-003  2.646e-003    -2.583    -2.577     0.005
   MgSO4                 2.596e-003  2.629e-003    -2.586    -2.580     0.005
   NaSO4-                8.674e-005  7.079e-005    -4.062    -4.150    -0.088
   HSO4-                 5.374e-007  4.386e-007    -6.270    -6.358    -0.088
   CaHSO4+               1.594e-008  1.301e-008    -7.797    -7.886    -0.088
   ZnSO4                 6.518e-015  6.601e-015   -14.186   -14.180     0.005
   Zn(SO4)2-2            6.502e-016  2.884e-016   -15.187   -15.540    -0.353
   FeSO4                 1.348e-019  1.365e-019   -18.870   -18.865     0.005
   FeHSO4+               9.225e-025  7.529e-025   -24.035   -24.123    -0.088
   FeSO4+                3.264e-033  2.664e-033   -32.486   -32.575    -0.088
   Fe(SO4)2-             3.838e-034  3.132e-034   -33.416   -33.504    -0.088
   FeHSO4+2              1.350e-038  5.986e-039   -37.870   -38.223    -0.353
Zn              6.761e-007
   Zn(HS)2               6.715e-007  6.800e-007    -6.173    -6.167     0.005
   Zn(HS)3-              4.649e-009  3.794e-009    -8.333    -8.421    -0.088
   Zn+2                  1.181e-014  5.239e-015   -13.928   -14.281    -0.353
   ZnHCO3+               1.169e-014  9.543e-015   -13.932   -14.020    -0.088
   ZnSO4                 6.518e-015  6.601e-015   -14.186   -14.180     0.005
   ZnCO3                 8.346e-016  8.452e-016   -15.079   -15.073     0.005
   Zn(SO4)2-2            6.502e-016  2.884e-016   -15.187   -15.540    -0.353
   Zn(CO3)2-2            3.294e-017  1.461e-017   -16.482   -16.835    -0.353
   ZnOH+                 8.376e-018  6.836e-018   -17.077   -17.165    -0.088
   ZnCl+                 8.293e-018  6.768e-018   -17.081   -17.170    -0.088
   ZnOHCl                9.784e-020  9.908e-020   -19.010   -19.004     0.005
   Zn(OH)2               9.222e-020  9.339e-020   -19.035   -19.030     0.005
   ZnCl2                 3.359e-021  3.401e-021   -20.474   -20.468     0.005
   ZnCl3-                2.244e-024  1.832e-024   -23.649   -23.737    -0.088
   Zn(OH)3-              4.306e-025  3.514e-025   -24.366   -24.454    -0.088
   ZnCl4-2               9.933e-028  4.406e-028   -27.003   -27.356    -0.353
   Zn(OH)4-2             1.494e-031  6.628e-032   -30.826   -31.179    -0.353

------------------------------Saturation indices-------------------------------

	Phase               SI log IAP  log KT

	Anhydrite        -0.52   -4.88   -4.36  CaSO4
	Aragonite        -0.36   -8.70   -8.34  CaCO3
	Artinite         -8.90    0.70    9.60  MgCO3:Mg(OH)2:3H2O
	Bianchite       -14.79  -16.55   -1.76  ZnSO4:6H2O
	Brucite          -7.37    9.47   16.84  Mg(OH)2
	Calcite          -0.22   -8.70   -8.48  CaCO3
	CH4(g)           -3.08   -5.94   -2.86  CH4
	CO2(g)           -0.10   -1.56   -1.47  CO2
	Dolomite         -0.38  -17.47  -17.09  CaMg(CO3)2
	Dolomite(d)      -0.93  -17.47  -16.54  CaMg(CO3)2
	Epsomite         -2.81   -4.95   -2.14  MgSO4:7H2O
	Fe(OH)2.7Cl.3   -15.90  -18.94   -3.04  Fe(OH)2.7Cl0.3
	Fe(OH)3(a)      -21.01  -16.12    4.89  Fe(OH)3
	Fe3(OH)8        -59.15  -38.93   20.22  Fe3(OH)8
	FeS(ppt)        -12.27  -16.18   -3.92  FeS
	Goethite        -15.12  -16.12   -1.00  FeOOH
	Goslarite       -14.59  -16.55   -1.96  ZnSO4:7H2O
	Greigite        -31.85  -76.88  -45.03  Fe3S4
	Gypsum           -0.30   -4.88   -4.58  CaSO4:2H2O
	H2(g)            -7.19  -10.34   -3.15  H2
	H2O(g)           -1.51   -0.00    1.51  H2O
	H2S(g)           -1.55   -2.55   -1.00  H2S
	Halite           -7.48   -5.90    1.58  NaCl
	Hematite        -28.23  -32.23   -4.01  Fe2O3
	Huntite          -5.05  -35.02  -29.97  CaMg3(CO3)4
	Hydromagnesite  -16.86  -25.62   -8.76  Mg5(CO3)4(OH)2:4H2O
	Jarosite-Na     -68.42  -73.70   -5.28  NaFe3(SO4)2(OH)6
	JarositeH       -71.81  -77.20   -5.39  (H3O)Fe3(SO4)2(OH)6
	Mackinawite     -11.53  -16.18   -4.65  FeS
	Maghemite       -38.62  -32.23    6.39  Fe2O3
	Magnesite        -0.74   -8.77   -8.03  MgCO3
	Magnetite       -42.67  -38.93    3.74  Fe3O4
	Melanterite     -18.91  -21.12   -2.21  FeSO4:7H2O
	Mirabilite       -6.32   -7.44   -1.11  Na2SO4:10H2O
	Nahcolite        -3.87   -4.42   -0.55  NaHCO3
	Natron           -9.95  -11.26   -1.31  Na2CO3:10H2O
	Nesquehonite     -3.15   -8.77   -5.62  MgCO3:3H2O
	O2(g)           -68.80  -71.70   -2.89  O2
	Portlandite     -13.26    9.54   22.80  Ca(OH)2
	Pyrite            0.00  -18.48  -18.48  FeS2
	Siderite        -14.05  -24.94  -10.89  FeCO3
	Siderite(d)(3)  -14.49  -24.94  -10.45  FeCO3
	Smithsonite     -10.37  -20.37  -10.00  ZnCO3
	Sphalerite        0.00  -11.62  -11.62  ZnS
	Sulfur           -0.19  -15.21  -15.03  S
	Thenardite       -7.25   -7.43   -0.18  Na2SO4
	Thermonatrite   -11.38  -11.25    0.13  Na2CO3:H2O
	Trona           -14.88  -15.67   -0.80  NaHCO3:Na2CO3:2H2O
	Wurtzite         -1.94  -11.62   -9.68  ZnS
	Zincite(c)      -13.27   -2.13   11.14  ZnO
	Zincosite       -19.56  -16.55    3.01  ZnSO4
	Zn(OH)2-a       -14.58   -2.13   12.45  Zn(OH)2
	Zn(OH)2-b       -13.88   -2.13   11.75  Zn(OH)2
	Zn(OH)2-c       -14.33   -2.13   12.20  Zn(OH)2
	Zn(OH)2-e       -13.63   -2.13   11.50  Zn(OH)2
	Zn(OH)2-g       -13.84   -2.13   11.71  Zn(OH)2
	Zn2(OH)2SO4     -26.18  -18.68    7.50  Zn2(OH)2SO4
	Zn2(OH)3Cl      -28.85  -13.65   15.20  Zn2(OH)3Cl
	Zn3O(SO4)2      -54.25  -35.23   19.02  ZnO:2ZnSO4
	Zn4(OH)6SO4     -51.34  -22.94   28.40  Zn4(OH)6SO4
	Zn5(OH)8Cl2     -67.94  -29.44   38.50  Zn5(OH)8Cl2
	ZnCl2           -27.95  -20.92    7.03  ZnCl2
	ZnCO3:H2O       -10.11  -20.37  -10.26  ZnCO3:H2O
	ZnMetal         -35.08   -9.32   25.76  Zn
	ZnO(a)          -13.44   -2.13   11.31  ZnO
	ZnS(a)           -2.57  -11.62   -9.05  ZnS
	ZnSO4:H2O       -15.98  -16.55   -0.57  ZnSO4:H2O

------------------
End of simulation.
------------------

------------------------------------
Reading input data for simulation 3.
------------------------------------

-----------
End of run.
-----------

