   Input file: i7
  Output file: i7.out
Database file: ../database/phreeqc.dat

------------------
Reading data base.
------------------

	SOLUTION_MASTER_SPECIES
	SOLUTION_SPECIES
	PHASES
	EXCHANGE_MASTER_SPECIES
	EXCHANGE_SPECIES
	SURFACE_MASTER_SPECIES
	SURFACE_SPECIES
	RATES
	END
------------------------------------
Reading input data for simulation 1.
------------------------------------

	DATABASE ../database/phreeqc.dat
	SURFACE_MASTER_SPECIES
	 Su Su-
	SURFACE_SPECIES
	 Su- = Su-
	 log_k 0
	SOLUTION_MASTER_SPECIES
	 A A 0 A 1
	 Ap Ap+ 0 Ap 1
	 Am Am- 0 Am 1
	SOLUTION_SPECIES
	 A = A
	 log_k 0
	 gamma 1e20 0
	 Ap+ = Ap+
	 log_k 0
	 gamma 1e20 0
	 Am- = Am-
	 log_k 0
	 gamma 1e20 0
	SOLUTION 0
	 pH 7.0 # charge
	 A 1
	 Ap 10  charge
	 Am 10
	SOLUTION 1-2
	 pH 7 charge
	 Na 1
	 Cl 1
	SOLUTION 4-6
	 pH 7 charge
	 water 0.5
	 Na 1
	 Cl 1  # Note that MCD adds absolute moles,
	SOLUTION 8
	 pH 7 charge
	 water 0.25
	 Na 1
	 Cl 1   # adapt water to match conc'n change
	SURFACE 1-3
	 Su 1 1e5 1
	 equilibrate 1
	 donnan viscos 1 1e-15
	SURFACE 4-6
	 Su 1 1e5 1
	 equilibrate 1
	 donnan 0.5e-15  v  1# 1e-9
	SURFACE 8
	 Su 1 1e5 1
	 equilibrate 1
	 donnan 0.25e-15# 1e-9
	END          
-------------------------------------------
Beginning of initial solution calculations.
-------------------------------------------

Initial solution 0.	

-----------------------------Solution composition------------------------------

	Elements           Molality       Moles

	A                1.000e-003  1.000e-003
	Am               1.000e-002  1.000e-002
	Ap               1.000e-002  1.000e-002  Charge balance

----------------------------Description of solution----------------------------

                                       pH  =   7.000    
                                       pe  =   4.000    
       Specific Conductance (uS/cm, 25 oC) = 0
                          Density (g/cm3)  =   0.99705
                        Activity of water  =   1.000
                           Ionic strength  =  1.000e-002
                       Mass of water (kg)  =  1.000e+000
                 Total alkalinity (eq/kg)  =  1.697e-009
                    Total carbon (mol/kg)  =  0.000e+000
                       Total CO2 (mol/kg)  =  0.000e+000
                      Temperature (deg C)  =  25.000
                  Electrical balance (eq)  =  4.592e-011
 Percent error, 100*(Cat-|An|)/(Cat+|An|)  =   0.00
                               Iterations  =   8
                                  Total H  = 1.110124e+002
                                  Total O  = 5.550622e+001

----------------------------Distribution of species----------------------------

                                                   Log       Log         Log 
   Species                 Molality    Activity  Molality  Activity     Gamma

   OH-                   1.112e-007  1.001e-007    -6.954    -7.000    -0.046
   H+                    1.095e-007  1.000e-007    -6.961    -7.000    -0.039
   H2O                   5.551e+001  9.996e-001     1.744    -0.000     0.000
A               1.000e-003
   A                     1.000e-003  1.000e-003    -3.000    -3.000     0.000
Am              1.000e-002
   Am-                   1.000e-002  1.000e-002    -2.000    -2.000    -0.000
Ap              1.000e-002
   Ap+                   1.000e-002  1.000e-002    -2.000    -2.000    -0.000
H(0)            1.413e-025
   H2                    7.063e-026  7.079e-026   -25.151   -25.150     0.001
O(0)            0.000e+000
   O2                    0.000e+000  0.000e+000   -42.081   -42.080     0.001

------------------------------Saturation indices-------------------------------

	Phase               SI log IAP  log KT

	H2(g)           -22.00  -25.15   -3.15  H2
	H2O(g)           -1.51   -0.00    1.51  H2O
	O2(g)           -39.19  -42.08   -2.89  O2

Initial solution 1.	

-----------------------------Solution composition------------------------------

	Elements           Molality       Moles

	Cl               1.000e-003  1.000e-003
	Na               1.000e-003  1.000e-003

----------------------------Description of solution----------------------------

                                       pH  =   6.999      Charge balance
                                       pe  =   4.000    
       Specific Conductance (uS/cm, 25 oC) = 123
                          Density (g/cm3)  =   0.99709
                        Activity of water  =   1.000
                           Ionic strength  =  1.000e-003
                       Mass of water (kg)  =  1.000e+000
                 Total alkalinity (eq/kg)  = -8.457e-021
                    Total carbon (mol/kg)  =  0.000e+000
                       Total CO2 (mol/kg)  =  0.000e+000
                      Temperature (deg C)  =  25.000
                  Electrical balance (eq)  = -2.031e-017
 Percent error, 100*(Cat-|An|)/(Cat+|An|)  =  -0.00
                               Iterations  =   3
                                  Total H  = 1.110124e+002
                                  Total O  = 5.550622e+001

----------------------------Distribution of species----------------------------

                                                   Log       Log         Log 
   Species                 Molality    Activity  Molality  Activity     Gamma

   H+                    1.036e-007  1.002e-007    -6.985    -6.999    -0.015
   OH-                   1.036e-007  9.993e-008    -6.985    -7.000    -0.016
   H2O                   5.551e+001  1.000e+000     1.744    -0.000     0.000
Cl              1.000e-003
   Cl-                   1.000e-003  9.649e-004    -3.000    -3.016    -0.016
H(0)            1.421e-025
   H2                    7.103e-026  7.104e-026   -25.149   -25.148     0.000
Na              1.000e-003
   Na+                   1.000e-003  9.652e-004    -3.000    -3.015    -0.015
   NaOH                  6.364e-011  6.365e-011   -10.196   -10.196     0.000
O(0)            0.000e+000
   O2                    0.000e+000  0.000e+000   -42.083   -42.083     0.000

------------------------------Saturation indices-------------------------------

	Phase               SI log IAP  log KT

	H2(g)           -22.00  -25.15   -3.15  H2
	H2O(g)           -1.51   -0.00    1.51  H2O
	Halite           -7.61   -6.03    1.58  NaCl
	O2(g)           -39.19  -42.08   -2.89  O2

Initial solution 4.	

-----------------------------Solution composition------------------------------

	Elements           Molality       Moles

	Cl               1.000e-003  5.000e-004
	Na               1.000e-003  5.000e-004

----------------------------Description of solution----------------------------

                                       pH  =   6.999      Charge balance
                                       pe  =   4.000    
       Specific Conductance (uS/cm, 25 oC) = 123
                          Density (g/cm3)  =   0.99709
                        Activity of water  =   1.000
                           Ionic strength  =  1.000e-003
                       Mass of water (kg)  =  5.000e-001
                 Total alkalinity (eq/kg)  = -8.457e-021
                    Total carbon (mol/kg)  =  0.000e+000
                       Total CO2 (mol/kg)  =  0.000e+000
                      Temperature (deg C)  =  25.000
                  Electrical balance (eq)  = -1.015e-017
 Percent error, 100*(Cat-|An|)/(Cat+|An|)  =  -0.00
                               Iterations  =   3
                                  Total H  = 5.550622e+001
                                  Total O  = 2.775311e+001

----------------------------Distribution of species----------------------------

                                                   Log       Log         Log 
   Species                 Molality    Activity  Molality  Activity     Gamma

   H+                    1.036e-007  1.002e-007    -6.985    -6.999    -0.015
   OH-                   1.036e-007  9.993e-008    -6.985    -7.000    -0.016
   H2O                   5.551e+001  1.000e+000     1.744    -0.000     0.000
Cl              1.000e-003
   Cl-                   1.000e-003  9.649e-004    -3.000    -3.016    -0.016
H(0)            1.421e-025
   H2                    7.103e-026  7.104e-026   -25.149   -25.148     0.000
Na              1.000e-003
   Na+                   1.000e-003  9.652e-004    -3.000    -3.015    -0.015
   NaOH                  6.364e-011  6.365e-011   -10.196   -10.196     0.000
O(0)            0.000e+000
   O2                    0.000e+000  0.000e+000   -42.083   -42.083     0.000

------------------------------Saturation indices-------------------------------

	Phase               SI log IAP  log KT

	H2(g)           -22.00  -25.15   -3.15  H2
	H2O(g)           -1.51   -0.00    1.51  H2O
	Halite           -7.61   -6.03    1.58  NaCl
	O2(g)           -39.19  -42.08   -2.89  O2

Initial solution 8.	

-----------------------------Solution composition------------------------------

	Elements           Molality       Moles

	Cl               1.000e-003  2.500e-004
	Na               1.000e-003  2.500e-004

----------------------------Description of solution----------------------------

                                       pH  =   6.999      Charge balance
                                       pe  =   4.000    
       Specific Conductance (uS/cm, 25 oC) = 123
                          Density (g/cm3)  =   0.99709
                        Activity of water  =   1.000
                           Ionic strength  =  1.000e-003
                       Mass of water (kg)  =  2.500e-001
                 Total alkalinity (eq/kg)  = -8.457e-021
                    Total carbon (mol/kg)  =  0.000e+000
                       Total CO2 (mol/kg)  =  0.000e+000
                      Temperature (deg C)  =  25.000
                  Electrical balance (eq)  = -5.077e-018
 Percent error, 100*(Cat-|An|)/(Cat+|An|)  =  -0.00
                               Iterations  =   3
                                  Total H  = 2.775311e+001
                                  Total O  = 1.387655e+001

----------------------------Distribution of species----------------------------

                                                   Log       Log         Log 
   Species                 Molality    Activity  Molality  Activity     Gamma

   H+                    1.036e-007  1.002e-007    -6.985    -6.999    -0.015
   OH-                   1.036e-007  9.993e-008    -6.985    -7.000    -0.016
   H2O                   5.551e+001  1.000e+000     1.744    -0.000     0.000
Cl              1.000e-003
   Cl-                   1.000e-003  9.649e-004    -3.000    -3.016    -0.016
H(0)            1.421e-025
   H2                    7.103e-026  7.104e-026   -25.149   -25.148     0.000
Na              1.000e-003
   Na+                   1.000e-003  9.652e-004    -3.000    -3.015    -0.015
   NaOH                  6.364e-011  6.365e-011   -10.196   -10.196     0.000
O(0)            0.000e+000
   O2                    0.000e+000  0.000e+000   -42.083   -42.083     0.000

------------------------------Saturation indices-------------------------------

	Phase               SI log IAP  log KT

	H2(g)           -22.00  -25.15   -3.15  H2
	H2O(g)           -1.51   -0.00    1.51  H2O
	Halite           -7.61   -6.03    1.58  NaCl
	O2(g)           -39.19  -42.08   -2.89  O2

------------------------------------------------------
Beginning of initial surface-composition calculations.
------------------------------------------------------

Surface 1.	

Su            
	-7.772e-016  Surface + diffuse layer charge, eq
	-1.000e+000  Surface charge, eq
	-9.649e-001  sigma, C/m**2
	-3.213e-001  psi, V
	 1.251e+001  -F*psi/RT
	 2.702e+005  exp(-F*psi/RT)
	 1.000e+005  specific area, m**2/g
	 1.000e+005  m**2 for  1.000e+000 g

	Water in diffuse layer: 1.000e-007 kg, 100.0% of total DDL-water.

	Total moles in diffuse layer (excluding water), Donnan calculation 

	Element       	     Moles
	Cl            	 1.0001e-020
	H             	 1.0362e-004
	Na            	 9.9990e-001
	O             	 6.3640e-018

Su            
	 1.000e+000  moles
	                                   Mole                     Log
	Species               Moles    Fraction    Molality    Molality

	Su-              1.000e+000       1.000  1.000e+000       0.000

Surface 4.	

Su            
	 1.110e-015  Surface + diffuse layer charge, eq
	-1.000e+000  Surface charge, eq
	-9.649e-001  sigma, C/m**2
	-3.213e-001  psi, V
	 1.251e+001  -F*psi/RT
	 2.702e+005  exp(-F*psi/RT)
	 1.000e+005  specific area, m**2/g
	 1.000e+005  m**2 for  1.000e+000 g

	Water in diffuse layer: 5.000e-008 kg, 100.0% of total DDL-water.

	Total moles in diffuse layer (excluding water), Donnan calculation 

	Element       	     Moles
	Cl            	 2.5003e-021
	H             	 1.0362e-004
	Na            	 9.9990e-001
	O             	 3.1820e-018

Su            
	 1.000e+000  moles
	                                   Mole                     Log
	Species               Moles    Fraction    Molality    Molality

	Su-              1.000e+000       1.000  1.000e+000       0.000

Surface 8.	

Su            
	-5.551e-016  Surface + diffuse layer charge, eq
	-1.000e+000  Surface charge, eq
	-9.649e-001  sigma, C/m**2
	-3.213e-001  psi, V
	 1.251e+001  -F*psi/RT
	 2.702e+005  exp(-F*psi/RT)
	 1.000e+005  specific area, m**2/g
	 1.000e+005  m**2 for  1.000e+000 g

	Water in diffuse layer: 2.500e-008 kg, 100.0% of total DDL-water.

	Total moles in diffuse layer (excluding water), Donnan calculation 

	Element       	     Moles
	Cl            	 6.2506e-022
	H             	 1.0362e-004
	Na            	 9.9990e-001
	O             	 1.5910e-018

Su            
	 1.000e+000  moles
	                                   Mole                     Log
	Species               Moles    Fraction    Molality    Molality

	Su-              1.000e+000       1.000  1.000e+000       0.000

-----------------------------------------
Beginning of batch-reaction calculations.
-----------------------------------------

Reaction step 1.

Using solution 0.	
Using surface 1.	Surface assemblage after simulation 1.

------------------------------Surface composition------------------------------

Su            
	 4.193e-011  Surface + diffuse layer charge, eq
	-1.000e+000  Surface charge, eq
	-9.649e-001  sigma, C/m**2
	-2.622e-001  psi, V
	 1.020e+001  -F*psi/RT
	 2.702e+004  exp(-F*psi/RT)
	 1.000e+005  specific area, m**2/g
	 1.000e+005  m**2 for  1.000e+000 g

	Water in diffuse layer: 1.000e-007 kg, 100.0% of total DDL-water.

	Total moles in diffuse layer (excluding water), Donnan calculation 

	Element       	     Moles
	A             	 1.0000e-010
	Am            	 1.0000e-018
	Ap            	 9.9010e-003
	Cl            	 1.0001e-036
	H             	 1.0261e-004
	Na            	 9.9000e-001
	O             	 6.2857e-018

Su            
	 1.000e+000  moles
	                                   Mole                     Log
	Species               Moles    Fraction    Molality    Molality

	Su-              1.000e+000       1.000  1.000e+000      -0.000

-----------------------------Solution composition------------------------------

	Elements           Molality       Moles

	A                1.000e-003  1.000e-003
	Am               1.000e-002  1.000e-002
	Ap               9.901e-005  9.901e-005
	Cl               1.000e-020  1.000e-020
	Na               9.900e-003  9.900e-003

----------------------------Description of solution----------------------------

                                       pH  =   6.028      Charge balance
                                       pe  =  -0.366      Adjusted to redox equilibrium
       Specific Conductance (uS/cm, 25 oC) = 465
                          Density (g/cm3)  =   0.99730
                        Activity of water  =   1.000
                           Ionic strength  =  1.000e-002
                       Mass of water (kg)  =  1.000e+000
                 Total alkalinity (eq/kg)  = -1.014e-006
                    Total carbon (mol/kg)  =  0.000e+000
                       Total CO2 (mol/kg)  =  0.000e+000
                      Temperature (deg C)  =  25.000
                  Electrical balance (eq)  =  4.592e-011
 Percent error, 100*(Cat-|An|)/(Cat+|An|)  =   0.00
                               Iterations  =   0
                                  Total H  = 1.110124e+002
                                  Total O  = 5.550622e+001

----------------------------Distribution of species----------------------------

                                                   Log       Log         Log 
   Species                 Molality    Activity  Molality  Activity     Gamma

   H+                    1.026e-006  9.373e-007    -5.989    -6.028    -0.039
   OH-                   1.186e-008  1.068e-008    -7.926    -7.972    -0.046
   H2O                   5.551e+001  9.996e-001     1.744    -0.000     0.000
A               1.000e-003
   A                     1.000e-003  1.000e-003    -3.000    -3.000     0.000
Am              1.000e-002
   Am-                   1.000e-002  1.000e-002    -2.000    -2.000    -0.000
Ap              9.901e-005
   Ap+                   9.901e-005  9.901e-005    -4.004    -4.004    -0.000
Cl              1.000e-020
   Cl-                   1.000e-020  9.006e-021   -20.000   -20.045    -0.046
H(0)            6.701e-015
   H2                    3.351e-015  3.358e-015   -14.475   -14.474     0.001
Na              9.900e-003
   Na+                   9.900e-003  8.941e-003    -2.004    -2.049    -0.044
   NaOH                  6.286e-011  6.300e-011   -10.202   -10.201     0.001
O(0)            0.000e+000
   O2                    0.000e+000  0.000e+000   -63.434   -63.433     0.001

------------------------------Saturation indices-------------------------------

	Phase               SI log IAP  log KT

	H2(g)           -11.32  -14.47   -3.15  H2
	H2O(g)           -1.51   -0.00    1.51  H2O
	Halite          -23.68  -22.09    1.58  NaCl
	O2(g)           -60.54  -63.43   -2.89  O2

------------------
End of simulation.
------------------

------------------------------------
Reading input data for simulation 2.
------------------------------------

	MIX 1
	 4 0.03                         # Note to take small fractions if
	MIX 4
	 6 0.03
	 8 0.03                 #   Dw(Am-) = 10 * default_Dw
	MIX 2
	 5 0.02
	END
-----------------------------------------
Beginning of batch-reaction calculations.
-----------------------------------------

Reaction step 1.

Using mix 1.	

Mixture 1.	

	 3.000e-002 Solution 4	                                                       

-----------------------------Solution composition------------------------------

	Elements           Molality       Moles

	Cl               1.000e-003  1.500e-005
	Na               1.000e-003  1.500e-005

----------------------------Description of solution----------------------------

                                       pH  =   6.999      Charge balance
                                       pe  =   4.000      Adjusted to redox equilibrium
       Specific Conductance (uS/cm, 25 oC) = 123
                          Density (g/cm3)  =   0.99709
                        Activity of water  =   1.000
                           Ionic strength  =  1.000e-003
                       Mass of water (kg)  =  1.500e-002
                 Total alkalinity (eq/kg)  = -8.451e-021
                    Total carbon (mol/kg)  =  0.000e+000
                       Total CO2 (mol/kg)  =  0.000e+000
                      Temperature (deg C)  =  25.000
                  Electrical balance (eq)  = -3.030e-019
 Percent error, 100*(Cat-|An|)/(Cat+|An|)  =  -0.00
                               Iterations  =   0
                                  Total H  = 1.665187e+000
                                  Total O  = 8.325933e-001

----------------------------Distribution of species----------------------------

                                                   Log       Log         Log 
   Species                 Molality    Activity  Molality  Activity     Gamma

   H+                    1.036e-007  1.002e-007    -6.985    -6.999    -0.015
   OH-                   1.036e-007  9.993e-008    -6.985    -7.000    -0.016
   H2O                   5.551e+001  1.000e+000     1.744    -0.000     0.000
Cl              1.000e-003
   Cl-                   1.000e-003  9.649e-004    -3.000    -3.016    -0.016
H(0)            1.421e-025
   H2                    7.103e-026  7.104e-026   -25.149   -25.148     0.000
Na              1.000e-003
   Na+                   1.000e-003  9.652e-004    -3.000    -3.015    -0.015
   NaOH                  6.364e-011  6.365e-011   -10.196   -10.196     0.000
O(0)            0.000e+000
   O2                    0.000e+000  0.000e+000   -42.083   -42.083     0.000

------------------------------Saturation indices-------------------------------

	Phase               SI log IAP  log KT

	H2(g)           -22.00  -25.15   -3.15  H2
	H2O(g)           -1.51   -0.00    1.51  H2O
	Halite           -7.61   -6.03    1.58  NaCl
	O2(g)           -39.19  -42.08   -2.89  O2

------------------
End of simulation.
------------------

------------------------------------
Reading input data for simulation 3.
------------------------------------

	PRINT
	 reset false
WARNING: No cell-lengths were read; length = 1 m assumed.
WARNING: No dispersivities were read; disp = 0 assumed.
WARNING: Negative concentration in MCD: added 2.9e-006 moles Ap in cell 1.
WARNING: Negative concentration in MCD: added 4.919e-002 moles Na in cell 1
WARNING: Negative concentration in MCD: added 4.7e-002 moles Ap in cell 1.
WARNING: Negative concentration in MCD: added 1.1e-008 moles Ap in cell 2.
WARNING: Negative concentration in MCD: added 7.5e-002 moles Ap in cell 4.
WARNING: Negative concentration in MCD: added 2.1e-004 moles Ap in cell 2.
WARNING: Negative concentration in MCD: added 2.0e-004 moles Ap in cell 2.
WARNING: Negative concentration in MCD: added 1.7e-004 moles Ap in cell 2.
WARNING: Negative concentration in MCD: added 1.7e-004 moles Ap in cell 2.
WARNING: Negative concentration in MCD: added 1.7e-004 moles Ap in cell 2.
WARNING: Negative concentration in MCD: added 1.7e-004 moles Ap in cell 2.
WARNING: Negative concentration in MCD: added 1.7e-004 moles Ap in cell 2.
WARNING: Negative concentration in MCD: added 1.6e-004 moles Ap in cell 2.
WARNING: Negative concentration in MCD: added 1.6e-004 moles Ap in cell 2.
WARNING: Negative concentration in MCD: added 1.5e-004 moles Ap in cell 2.
WARNING: Negative concentration in MCD: added 1.4e-004 moles Ap in cell 2.
WARNING: Negative concentration in MCD: added 1.3e-004 moles Ap in cell 2.
WARNING: Negative concentration in MCD: added 1.2e-004 moles Ap in cell 2.
WARNING: Negative concentration in MCD: added 1.1e-004 moles Ap in cell 2.
WARNING: Negative concentration in MCD: added 9.9e-005 moles Ap in cell 2.
WARNING: Negative concentration in MCD: added 8.8e-005 moles Ap in cell 2.
WARNING: Negative concentration in MCD: added 7.6e-005 moles Ap in cell 2.
WARNING: Negative concentration in MCD: added 6.4e-005 moles Ap in cell 2.
WARNING: Negative concentration in MCD: added 5.3e-005 moles Ap in cell 2.
WARNING: Negative concentration in MCD: added 4.1e-005 moles Ap in cell 2.
WARNING: Negative concentration in MCD: added 3.0e-005 moles Ap in cell 2.
WARNING: Negative concentration in MCD: added 2.0e-005 moles Ap in cell 2.
WARNING: Negative concentration in MCD: added 9.5e-006 moles Ap in cell 2.
