   Input file: Int_vs_Don
  Output file: Int_vs_Don.out
Database file: phreeqc.dat

------------------
Reading data base.
------------------

	SOLUTION_MASTER_SPECIES
	SOLUTION_SPECIES
	PHASES
	EXCHANGE_MASTER_SPECIES
	EXCHANGE_SPECIES
	SURFACE_MASTER_SPECIES
	SURFACE_SPECIES
	RATES
	END
------------------------------------
Reading input data for simulation 1.
------------------------------------

	SOLUTION_SPECIES
	Al+3 + H2O = AlOH+2 + H+
	        log_k   -50.0
	        delta_h 11.49   kcal
	Al+3 + 2 H2O = Al(OH)2+ + 2 H+
	        log_k   -100.1
	        delta_h 26.90   kcal
	Al+3 + 3 H2O = Al(OH)3 + 3 H+
	        log_k   -160.9
	        delta_h 39.89   kcal
	Al+3 + 4 H2O = Al(OH)4- + 4 H+
	        log_k   -220.7
	        delta_h 42.30   kcal
	SURFACE_MASTER_SPECIES
	 Su Su-
	SURFACE_SPECIES
	 Su- = Su-
	 log_k 0
	SOLUTION 1-2
	 pH 6.0
	 Na 1e2
	 Cl 1 charge
	SURFACE 1
	 Su 1e-2 1e5 1
	 equilibrate 1
	 donnan 1e-8
	SELECTED_OUTPUT
	 file Int_vs_Don.sel
	 reset false
	USER_PUNCH
	 heading reaction_step DL_type Na/mM dl_Na dl_Ca dl_Al edl_Cl edl_S K_Na\Ca K_Na_Al
	 start
	 10 dl_Ca = (edl("Ca", "Su") - tot("Ca") * edl("water", "Su")) * 2
	 12 dl_Al = (edl("Al", "Su") - tot("Al") * edl("water", "Su")) * 3
	 20 dl_Na = (edl("Na", "Su") - tot("Na") * edl("water", "Su"))
	 21 if (dl_Ca = 0 or tot("Na") = 0) then goto 60
	 22 bb_Ca = dl_Ca / (dl_Ca + dl_Na + dl_Al)
	 24 bb_Na = dl_Na / (dl_Ca + dl_Na + dl_Al)
	 25 bb_Al = dl_Al / (dl_Ca + dl_Na + dl_Al)
	 26 bb_Cl = 1 - (dl_Ca + dl_Na + dl_Al) / (mol("Su-") * tot("water"))
	 30 K_Na_Ca = bb_Na / bb_Ca^0.5 * tot("Ca")^0.5 / tot("Na")
	 40 print 'solution', cell_no, ' ( 1 is Donnan, 2 is integration)'
	 41 punch step_no
	 42 if cell_no = 1 then punch 'Donnan' else punch 'Integrated'
	 44 punch tot("Na")*1e3, dl_Na*1e3, dl_Ca*1e3, dl_Al*1e3, (edl("Cl", "Su")- tot("Cl")*edl("water", "Su"))*1e3, edl("S")
	 46 print '. CB =', dl_Ca + dl_Na + tot("Cl") * edl("water") - edl("Cl", "Su") - mol("Su-") * tot("water")
	 50 print 'K_Na\Ca (Su) =', K_Na_Ca, '. Na_DDl / Na0 =', edl("Na", "Su") / tot("Na"), 'f_Cl in DL charge =', bb_Cl
	 51 punch K_Na_Ca
	 52 if dl_Al = 0 then goto 60
	 54 K_Na_Al = bb_Na / bb_Al^(1/3) * tot("Al")^(1/3) / tot("Na")
	 56 print 'K_Na\Al (Su) =', K_Na_Al
	 58 punch K_Na_Al
	 60 end
	 end
	REACTION 1-2
	 Na -10 Ca 2 Al 2
	 1e-8 10*0.0020411
	INCREMENTAL_REACTIONS
	END
-------------------------------------------
Beginning of initial solution calculations.
-------------------------------------------

Initial solution 1.	

-----------------------------Solution composition------------------------------

	Elements           Molality       Moles

	Cl               1.000e-001  1.000e-001  Charge balance
	Na               1.000e-001  1.000e-001

----------------------------Description of solution----------------------------

                                       pH  =   6.000    
                                       pe  =   4.000    
                        Activity of water  =   0.997
                           Ionic strength  =  1.000e-001
                       Mass of water (kg)  =  1.000e+000
                 Total alkalinity (eq/kg)  = -1.198e-006
                    Total carbon (mol/kg)  =  0.000e+000
                       Total CO2 (mol/kg)  =  0.000e+000
                      Temperature (deg C)  =  25.000
                  Electrical balance (eq)  = -1.233e-015
 Percent error, 100*(Cat-|An|)/(Cat+|An|)  =  -0.00
                               Iterations  =  10
                                  Total H  = 1.110124e+002
                                  Total O  = 5.550622e+001

----------------------------Distribution of species----------------------------

                                                   Log       Log         Log 
   Species                 Molality    Activity  Molality  Activity     Gamma

   H+                    1.211e-006  1.000e-006    -5.917    -6.000    -0.083
   OH-                   1.310e-008  9.977e-009    -7.883    -8.001    -0.118
   H2O                   5.551e+001  9.966e-001     1.744    -0.001     0.000
Cl              1.000e-001
   Cl-                   1.000e-001  7.645e-002    -1.000    -1.117    -0.117
H(0)            1.384e-023
   H2                    6.918e-024  7.079e-024   -23.160   -23.150     0.010
Na              1.000e-001
   Na+                   1.000e-001  7.829e-002    -1.000    -1.106    -0.106
   NaOH                  5.038e-010  5.155e-010    -9.298    -9.288     0.010
O(0)            0.000e+000
   O2                    0.000e+000  0.000e+000   -46.093   -46.083     0.010

------------------------------Saturation indices-------------------------------

	Phase               SI log IAP  log KT

	H2(g)           -20.00  -23.15   -3.15  H2
	H2O(g)           -1.51   -0.00    1.51  H2O
	Halite           -3.80   -2.22    1.58  NaCl
	O2(g)           -43.12  -46.08   -2.96  O2

------------------------------------------------------
Beginning of initial surface-composition calculations.
------------------------------------------------------

Surface 1.	

Su            
	-4.592e-011  Surface + diffuse layer charge, eq
	-1.000e-002  Surface charge, eq
	-9.649e-003  sigma, C/m**2
	-1.321e-002  psi, V
	 5.141e-001  -F*psi/RT
	 1.672e+000  exp(-F*psi/RT)
	 1.000e+005  specific area, m**2/g
	 1.000e+005  m**2 for  1.000e+000 g

	Water in diffuse layer: 1.000e+000 kg, 100.0% of total DDL-water.

	Total moles in diffuse layer (excluding water), Donnan calculation 

	Element       	     Moles
	Cl            	 9.5126e-002
	H             	 1.2864e-006
	Na            	 1.0512e-001
	O             	 1.2961e-008

Su            
	 1.000e-002  moles
	                                   Mole                     Log
	Species               Moles    Fraction    Molality    Molality

	Su-              1.000e-002       1.000  1.000e-002      -2.000

-----------------------------------------
Beginning of batch-reaction calculations.
-----------------------------------------

Reaction step 1.

solution            1  ( 1 is Donnan, 2 is integration) 
. CB = -6.7039e-008 
K_Na\Ca (Su) =  1.5613e+000 . Na_DDl / Na0 =  1.0512e+000 f_Cl in DL charge =  4.8751e-001 
K_Na\Al (Su) =  2.1940e+000 
Using solution 1.	
Using surface 1.	Surface assemblage after simulation 1.
Using reaction 1.	

Reaction 1.	Irreversible reaction defined in simulation 1.

	 1.000e-008 moles of the following reaction have been added:

	                 Relative
	Reactant            moles

	Na                 -10.00000
	Ca                   2.00000
	Al                   2.00000

	                 Relative
	Element             moles
	Al                   2.00000
	Ca                   2.00000
	Na                 -10.00000

------------------------------Surface composition------------------------------

Su            
	 1.220e-010  Surface + diffuse layer charge, eq
	-1.000e-002  Surface charge, eq
	-9.649e-003  sigma, C/m**2
	-1.321e-002  psi, V
	 5.141e-001  -F*psi/RT
	 1.672e+000  exp(-F*psi/RT)
	 1.000e+005  specific area, m**2/g
	 1.000e+005  m**2 for  1.000e+000 g

	Water in diffuse layer: 1.000e+000 kg, 100.0% of total DDL-water.

	Total moles in diffuse layer (excluding water), Donnan calculation 

	Element       	     Moles
	Al            	 1.0748e-008
	Ca            	 1.0499e-008
	Cl            	 9.5126e-002
	H             	 1.2864e-006
	Na            	 1.0512e-001
	O             	 1.2961e-008

Su            
	 1.000e-002  moles
	                                   Mole                     Log
	Species               Moles    Fraction    Molality    Molality

	Su-              1.000e-002       1.000  1.000e-002      -2.000

-----------------------------Solution composition------------------------------

	Elements           Molality       Moles

	Al               9.252e-009  9.252e-009
	Ca               9.501e-009  9.501e-009
	Cl               1.000e-001  1.000e-001
	Na               1.000e-001  1.000e-001

----------------------------Description of solution----------------------------

                                       pH  =   6.000      Charge balance
                                       pe  =  11.940      Adjusted to redox equilibrium
                        Activity of water  =   0.997
                           Ionic strength  =  1.000e-001
                       Mass of water (kg)  =  1.000e+000
                 Total alkalinity (eq/kg)  = -1.198e-006
                    Total carbon (mol/kg)  =  0.000e+000
                       Total CO2 (mol/kg)  =  0.000e+000
                      Temperature (deg C)  =  25.000
                  Electrical balance (eq)  = -4.593e-011
 Percent error, 100*(Cat-|An|)/(Cat+|An|)  =  -0.00
                               Iterations  =   0
                                  Total H  = 1.110124e+002
                                  Total O  = 5.550622e+001

----------------------------Distribution of species----------------------------

                                                   Log       Log         Log 
   Species                 Molality    Activity  Molality  Activity     Gamma

   H+                    1.211e-006  1.000e-006    -5.917    -6.000    -0.083
   OH-                   1.310e-008  9.977e-009    -7.883    -8.001    -0.118
   H2O                   5.551e+001  9.966e-001     1.744    -0.001     0.000
Al              9.252e-009
   Al+3                  9.252e-009  1.648e-009    -8.034    -8.783    -0.749
   AlOH+2                0.000e+000  0.000e+000   -52.356   -52.785    -0.428
   Al(OH)2+              0.000e+000  0.000e+000   -96.779   -96.886    -0.107
   Al(OH)3               0.000e+000  0.000e+000  -151.698  -151.688     0.010
   Al(OH)4-              0.000e+000  0.000e+000  -205.382  -205.489    -0.107
Ca              9.501e-009
   Ca+2                  9.501e-009  3.717e-009    -8.022    -8.430    -0.408
   CaOH+                 7.866e-016  6.147e-016   -15.104   -15.211    -0.107
Cl              1.000e-001
   Cl-                   1.000e-001  7.645e-002    -1.000    -1.117    -0.117
H(0)            1.827e-039
   H2                    9.137e-040  9.350e-040   -39.039   -39.029     0.010
Na              1.000e-001
   Na+                   1.000e-001  7.829e-002    -1.000    -1.106    -0.106
   NaOH                  5.038e-010  5.155e-010    -9.298    -9.288     0.010
O(0)            9.256e-015
   O2                    4.628e-015  4.736e-015   -14.335   -14.325     0.010

------------------------------Saturation indices-------------------------------

	Phase               SI log IAP  log KT

	Al(OH)3(a)       -1.59    9.21   10.80  Al(OH)3
	Gibbsite          1.10    9.21    8.11  Al(OH)3
	H2(g)           -35.88  -39.03   -3.15  H2
	H2O(g)           -1.51   -0.00    1.51  H2O
	Halite           -3.80   -2.22    1.58  NaCl
	O2(g)           -11.36  -14.32   -2.96  O2

Reaction step 2.

solution            1  ( 1 is Donnan, 2 is integration) 
. CB = -8.4764e-004 
K_Na\Ca (Su) =  1.4503e+000 . Na_DDl / Na0 =  1.0473e+000 f_Cl in DL charge =  4.5080e-001 
K_Na\Al (Su) =  1.9885e+000 
Using solution 1.	
Using surface 1.	Surface assemblage after simulation 1.
Using reaction 1.	

Reaction 1.	Irreversible reaction defined in simulation 1.

	 2.041e-003 moles of the following reaction have been added:

	                 Relative
	Reactant            moles

	Na                 -10.00000
	Ca                   2.00000
	Al                   2.00000

	                 Relative
	Element             moles
	Al                   2.00000
	Ca                   2.00000
	Na                 -10.00000

------------------------------Surface composition------------------------------

Su            
	 1.758e-012  Surface + diffuse layer charge, eq
	-1.000e-002  Surface charge, eq
	-9.649e-003  sigma, C/m**2
	-1.275e-002  psi, V
	 4.963e-001  -F*psi/RT
	 1.643e+000  exp(-F*psi/RT)
	 1.000e+005  specific area, m**2/g
	 1.000e+005  m**2 for  1.000e+000 g

	Water in diffuse layer: 1.000e+000 kg, 100.0% of total DDL-water.

	Total moles in diffuse layer (excluding water), Donnan calculation 

	Element       	     Moles
	Al            	 2.1824e-003
	Ca            	 2.1354e-003
	Cl            	 9.5310e-002
	H             	 1.2846e-006
	Na            	 9.4491e-002
	O             	 1.3233e-008

Su            
	 1.000e-002  moles
	                                   Mole                     Log
	Species               Moles    Fraction    Molality    Molality

	Su-              1.000e-002       1.000  1.000e-002      -2.000

-----------------------------Solution composition------------------------------

	Elements           Molality       Moles

	Al               1.900e-003  1.900e-003
	Ca               1.947e-003  1.947e-003
	Cl               9.982e-002  9.982e-002
	Na               9.022e-002  9.022e-002

----------------------------Description of solution----------------------------

                                       pH  =   6.001      Charge balance
                                       pe  =  -0.868      Adjusted to redox equilibrium
                        Activity of water  =   0.997
                           Ionic strength  =  1.075e-001
                       Mass of water (kg)  =  1.000e+000
                 Total alkalinity (eq/kg)  = -1.200e-006
                    Total carbon (mol/kg)  =  0.000e+000
                       Total CO2 (mol/kg)  =  0.000e+000
                      Temperature (deg C)  =  25.000
                  Electrical balance (eq)  =  7.609e-011
 Percent error, 100*(Cat-|An|)/(Cat+|An|)  =   0.00
                               Iterations  =   0
                                  Total H  = 1.110124e+002
                                  Total O  = 5.550622e+001

----------------------------Distribution of species----------------------------

                                                   Log       Log         Log 
   Species                 Molality    Activity  Molality  Activity     Gamma

   H+                    1.214e-006  9.986e-007    -5.916    -6.001    -0.085
   OH-                   1.321e-008  9.992e-009    -7.879    -8.000    -0.121
   H2O                   5.551e+001  9.967e-001     1.744    -0.001     0.000
Al              1.900e-003
   Al+3                  1.900e-003  3.277e-004    -2.721    -3.485    -0.763
   AlOH+2                0.000e+000  0.000e+000   -47.048   -47.485    -0.437
   Al(OH)2+              0.000e+000  0.000e+000   -91.477   -91.586    -0.109
   Al(OH)3               0.000e+000  0.000e+000  -146.398  -146.387     0.011
   Al(OH)4-              0.000e+000  0.000e+000  -200.078  -200.188    -0.109
Ca              1.947e-003
   Ca+2                  1.947e-003  7.462e-004    -2.711    -3.127    -0.416
   CaOH+                 1.590e-010  1.236e-010    -9.799    -9.908    -0.109
Cl              9.982e-002
   Cl-                   9.982e-002  7.578e-002    -1.001    -1.120    -0.120
H(0)            7.488e-014
   H2                    3.744e-014  3.838e-014   -13.427   -13.416     0.011
Na              9.022e-002
   Na+                   9.022e-002  7.025e-002    -1.045    -1.153    -0.109
   NaOH                  4.520e-010  4.633e-010    -9.345    -9.334     0.011
O(0)            0.000e+000
   O2                    0.000e+000  0.000e+000   -65.562   -65.551     0.011

------------------------------Saturation indices-------------------------------

	Phase               SI log IAP  log KT

	Al(OH)3(a)        3.71   14.51   10.80  Al(OH)3
	Gibbsite          6.40   14.51    8.11  Al(OH)3
	H2(g)           -10.27  -13.42   -3.15  H2
	H2O(g)           -1.51   -0.00    1.51  H2O
	Halite           -3.86   -2.27    1.58  NaCl
	O2(g)           -62.59  -65.55   -2.96  O2

Reaction step 3.

solution            1  ( 1 is Donnan, 2 is integration) 
. CB = -1.5767e-003 
K_Na\Ca (Su) =  1.3600e+000 . Na_DDl / Na0 =  1.0439e+000 f_Cl in DL charge =  4.1922e-001 
K_Na\Al (Su) =  1.8252e+000 
Using solution 1.	
Using surface 1.	Surface assemblage after simulation 1.
Using reaction 1.	

Reaction 1.	Irreversible reaction defined in simulation 1.

	 2.041e-003 moles of the following reaction have been added:

	                 Relative
	Reactant            moles

	Na                 -10.00000
	Ca                   2.00000
	Al                   2.00000

	                 Relative
	Element             moles
	Al                   2.00000
	Ca                   2.00000
	Na                 -10.00000

------------------------------Surface composition------------------------------

Su            
	 1.928e-010  Surface + diffuse layer charge, eq
	-1.000e-002  Surface charge, eq
	-9.649e-003  sigma, C/m**2
	-1.233e-002  psi, V
	 4.800e-001  -F*psi/RT
	 1.616e+000  exp(-F*psi/RT)
	 1.000e+005  specific area, m**2/g
	 1.000e+005  m**2 for  1.000e+000 g

	Water in diffuse layer: 1.000e+000 kg, 100.0% of total DDL-water.

	Total moles in diffuse layer (excluding water), Donnan calculation 

	Element       	     Moles
	Al            	 4.3450e-003
	Ca            	 4.2575e-003
	Cl            	 9.5468e-002
	H             	 1.2830e-006
	Na            	 8.3916e-002
	O             	 1.3494e-008

Su            
	 1.000e-002  moles
	                                   Mole                     Log
	Species               Moles    Fraction    Molality    Molality

	Su-              1.000e-002       1.000  1.000e-002      -2.000

-----------------------------Solution composition------------------------------

	Elements           Molality       Moles

	Al               3.819e-003  3.819e-003
	Ca               3.907e-003  3.907e-003
	Cl               9.966e-002  9.966e-002
	Na               8.039e-002  8.039e-002

----------------------------Description of solution----------------------------

                                       pH  =   6.001      Charge balance
                                       pe  =  -0.894      Adjusted to redox equilibrium
                        Activity of water  =   0.997
                           Ionic strength  =  1.150e-001
                       Mass of water (kg)  =  1.000e+000
                 Total alkalinity (eq/kg)  = -1.202e-006
                    Total carbon (mol/kg)  =  0.000e+000
                       Total CO2 (mol/kg)  =  0.000e+000
                      Temperature (deg C)  =  25.000
                  Electrical balance (eq)  =  7.785e-011
 Percent error, 100*(Cat-|An|)/(Cat+|An|)  =   0.00
                               Iterations  =   0
                                  Total H  = 1.110124e+002
                                  Total O  = 5.550622e+001

----------------------------Distribution of species----------------------------

                                                   Log       Log         Log 
   Species                 Molality    Activity  Molality  Activity     Gamma

   H+                    1.216e-006  9.970e-007    -5.915    -6.001    -0.086
   OH-                   1.332e-008  1.001e-008    -7.875    -8.000    -0.124
   H2O                   5.551e+001  9.968e-001     1.744    -0.001     0.000
Al              3.819e-003
   Al+3                  3.819e-003  6.390e-004    -2.418    -3.194    -0.776
   AlOH+2                0.000e+000  0.000e+000   -46.749   -47.195    -0.446
   Al(OH)2+              0.000e+000  0.000e+000   -91.183   -91.295    -0.111
   Al(OH)3               0.000e+000  0.000e+000  -146.106  -146.095     0.012
   Al(OH)4-              0.000e+000  0.000e+000  -199.783  -199.895    -0.111
Ca              3.907e-003
   Ca+2                  3.907e-003  1.469e-003    -2.408    -2.833    -0.425
   CaOH+                 3.150e-010  2.437e-010    -9.502    -9.613    -0.111
Cl              9.966e-002
   Cl-                   9.966e-002  7.515e-002    -1.001    -1.124    -0.123
H(0)            8.417e-014
   H2                    4.208e-014  4.321e-014   -13.376   -13.364     0.012
Na              8.039e-002
   Na+                   8.039e-002  6.227e-002    -1.095    -1.206    -0.111
   NaOH                  4.006e-010  4.113e-010    -9.397    -9.386     0.012
O(0)            0.000e+000
   O2                    0.000e+000  0.000e+000   -65.666   -65.654     0.012

------------------------------Saturation indices-------------------------------

	Phase               SI log IAP  log KT

	Al(OH)3(a)        4.01   14.81   10.80  Al(OH)3
	Gibbsite          6.70   14.81    8.11  Al(OH)3
	H2(g)           -10.21  -13.36   -3.15  H2
	H2O(g)           -1.51   -0.00    1.51  H2O
	Halite           -3.91   -2.33    1.58  NaCl
	O2(g)           -62.69  -65.65   -2.96  O2

Reaction step 4.

solution            1  ( 1 is Donnan, 2 is integration) 
. CB = -2.2105e-003 
K_Na\Ca (Su) =  1.2847e+000 . Na_DDl / Na0 =  1.0410e+000 f_Cl in DL charge =  3.9176e-001 
K_Na\Al (Su) =  1.6917e+000 
Using solution 1.	
Using surface 1.	Surface assemblage after simulation 1.
Using reaction 1.	

Reaction 1.	Irreversible reaction defined in simulation 1.

	 2.041e-003 moles of the following reaction have been added:

	                 Relative
	Reactant            moles

	Na                 -10.00000
	Ca                   2.00000
	Al                   2.00000

	                 Relative
	Element             moles
	Al                   2.00000
	Ca                   2.00000
	Na                 -10.00000

------------------------------Surface composition------------------------------

Su            
	 9.660e-013  Surface + diffuse layer charge, eq
	-1.000e-002  Surface charge, eq
	-9.649e-003  sigma, C/m**2
	-1.195e-002  psi, V
	 4.651e-001  -F*psi/RT
	 1.592e+000  exp(-F*psi/RT)
	 1.000e+005  specific area, m**2/g
	 1.000e+005  m**2 for  1.000e+000 g

	Water in diffuse layer: 1.000e+000 kg, 100.0% of total DDL-water.

	Total moles in diffuse layer (excluding water), Donnan calculation 

	Element       	     Moles
	Al            	 6.4917e-003
	Ca            	 6.3691e-003
	Cl            	 9.5605e-002
	H             	 1.2818e-006
	Na            	 7.3390e-002
	O             	 1.3744e-008

Su            
	 1.000e-002  moles
	                                   Mole                     Log
	Species               Moles    Fraction    Molality    Molality

	Su-              1.000e-002       1.000  1.000e-002      -2.000

-----------------------------Solution composition------------------------------

	Elements           Molality       Moles

	Al               5.755e-003  5.755e-003
	Ca               5.878e-003  5.878e-003
	Cl               9.952e-002  9.952e-002
	Na               7.050e-002  7.050e-002

----------------------------Description of solution----------------------------

                                       pH  =   6.002      Charge balance
                                       pe  =  -1.500      Adjusted to redox equilibrium
                        Activity of water  =   0.997
                           Ionic strength  =  1.227e-001
                       Mass of water (kg)  =  1.000e+000
                 Total alkalinity (eq/kg)  = -1.204e-006
                    Total carbon (mol/kg)  =  0.000e+000
                       Total CO2 (mol/kg)  =  0.000e+000
                      Temperature (deg C)  =  25.000
                  Electrical balance (eq)  =  2.707e-010
 Percent error, 100*(Cat-|An|)/(Cat+|An|)  =   0.00
                               Iterations  =   0
                                  Total H  = 1.110124e+002
                                  Total O  = 5.550622e+001

----------------------------Distribution of species----------------------------

                                                   Log       Log         Log 
   Species                 Molality    Activity  Molality  Activity     Gamma

   H+                    1.218e-006  9.955e-007    -5.914    -6.002    -0.088
   OH-                   1.344e-008  1.003e-008    -7.872    -7.999    -0.127
   H2O                   5.551e+001  9.969e-001     1.744    -0.001     0.000
Al              5.755e-003
   Al+3                  5.755e-003  9.356e-004    -2.240    -3.029    -0.789
   AlOH+2                0.000e+000  0.000e+000   -46.575   -47.028    -0.453
   Al(OH)2+              0.000e+000  0.000e+000   -91.014   -91.128    -0.113
   Al(OH)3               0.000e+000  0.000e+000  -145.939  -145.927     0.012
   Al(OH)4-              0.000e+000  0.000e+000  -199.613  -199.726    -0.113
Ca              5.878e-003
   Ca+2                  5.878e-003  2.170e-003    -2.231    -2.664    -0.433
   CaOH+                 4.682e-010  3.606e-010    -9.330    -9.443    -0.113
Cl              9.952e-002
   Cl-                   9.952e-002  7.457e-002    -1.002    -1.127    -0.125
H(0)            1.362e-012
   H2                    6.811e-013  7.006e-013   -12.167   -12.155     0.012
Na              7.050e-002
   Na+                   7.050e-002  5.435e-002    -1.152    -1.265    -0.113
   NaOH                  3.496e-010  3.596e-010    -9.456    -9.444     0.012
O(0)            0.000e+000
   O2                    0.000e+000  0.000e+000   -68.086   -68.074     0.012

------------------------------Saturation indices-------------------------------

	Phase               SI log IAP  log KT

	Al(OH)3(a)        4.17   14.97   10.80  Al(OH)3
	Gibbsite          6.86   14.97    8.11  Al(OH)3
	H2(g)            -9.00  -12.15   -3.15  H2
	H2O(g)           -1.51   -0.00    1.51  H2O
	Halite           -3.97   -2.39    1.58  NaCl
	O2(g)           -65.11  -68.07   -2.96  O2

Reaction step 5.

solution            1  ( 1 is Donnan, 2 is integration) 
. CB = -2.7665e-003 
K_Na\Ca (Su) =  1.2206e+000 . Na_DDl / Na0 =  1.0384e+000 f_Cl in DL charge =  3.6767e-001 
K_Na\Al (Su) =  1.5802e+000 
Using solution 1.	
Using surface 1.	Surface assemblage after simulation 1.
Using reaction 1.	

Reaction 1.	Irreversible reaction defined in simulation 1.

	 2.041e-003 moles of the following reaction have been added:

	                 Relative
	Reactant            moles

	Na                 -10.00000
	Ca                   2.00000
	Al                   2.00000

	                 Relative
	Element             moles
	Al                   2.00000
	Ca                   2.00000
	Na                 -10.00000

------------------------------Surface composition------------------------------

Su            
	 6.613e-010  Surface + diffuse layer charge, eq
	-1.000e-002  Surface charge, eq
	-9.649e-003  sigma, C/m**2
	-1.160e-002  psi, V
	 4.514e-001  -F*psi/RT
	 1.571e+000  exp(-F*psi/RT)
	 1.000e+005  specific area, m**2/g
	 1.000e+005  m**2 for  1.000e+000 g

	Water in diffuse layer: 1.000e+000 kg, 100.0% of total DDL-water.

	Total moles in diffuse layer (excluding water), Donnan calculation 

	Element       	     Moles
	Al            	 8.6255e-003
	Ca            	 8.4720e-003
	Cl            	 9.5725e-002
	H             	 1.2807e-006
	Na            	 6.2904e-002
	O             	 1.3986e-008

Su            
	 1.000e-002  moles
	                                   Mole                     Log
	Species               Moles    Fraction    Molality    Molality

	Su-              1.000e-002       1.000  1.000e-002      -2.000

-----------------------------Solution composition------------------------------

	Elements           Molality       Moles

	Al               7.703e-003  7.703e-003
	Ca               7.857e-003  7.857e-003
	Cl               9.940e-002  9.940e-002
	Na               6.058e-002  6.058e-002

----------------------------Description of solution----------------------------

                                       pH  =   6.003      Charge balance
                                       pe  =  -1.513      Adjusted to redox equilibrium
                        Activity of water  =   0.997
                           Ionic strength  =  1.304e-001
                       Mass of water (kg)  =  1.000e+000
                 Total alkalinity (eq/kg)  = -1.205e-006
                    Total carbon (mol/kg)  =  0.000e+000
                       Total CO2 (mol/kg)  =  0.000e+000
                      Temperature (deg C)  =  25.000
                  Electrical balance (eq)  =  2.716e-010
 Percent error, 100*(Cat-|An|)/(Cat+|An|)  =   0.00
                               Iterations  =   0
                                  Total H  = 1.110124e+002
                                  Total O  = 5.550622e+001

----------------------------Distribution of species----------------------------

                                                   Log       Log         Log 
   Species                 Molality    Activity  Molality  Activity     Gamma

   H+                    1.220e-006  9.939e-007    -5.914    -6.003    -0.089
   OH-                   1.355e-008  1.004e-008    -7.868    -7.998    -0.130
   H2O                   5.551e+001  9.970e-001     1.744    -0.001     0.000
Al              7.703e-003
   Al+3                  7.703e-003  1.219e-003    -2.113    -2.914    -0.801
   AlOH+2                0.000e+000  0.000e+000   -46.452   -46.913    -0.461
   Al(OH)2+              0.000e+000  0.000e+000   -90.896   -91.011    -0.115
   Al(OH)3               0.000e+000  0.000e+000  -145.823  -145.810     0.013
   Al(OH)4-              0.000e+000  0.000e+000  -199.493  -199.609    -0.115
Ca              7.857e-003
   Ca+2                  7.857e-003  2.851e-003    -2.105    -2.545    -0.440
   CaOH+                 6.187e-010  4.745e-010    -9.209    -9.324    -0.115
Cl              9.940e-002
   Cl-                   9.940e-002  7.403e-002    -1.003    -1.131    -0.128
H(0)            1.442e-012
   H2                    7.210e-013  7.430e-013   -12.142   -12.129     0.013
Na              6.058e-002
   Na+                   6.058e-002  4.649e-002    -1.218    -1.333    -0.115
   NaOH                  2.990e-010  3.081e-010    -9.524    -9.511     0.013
O(0)            0.000e+000
   O2                    0.000e+000  0.000e+000   -68.138   -68.125     0.013

------------------------------Saturation indices-------------------------------

	Phase               SI log IAP  log KT

	Al(OH)3(a)        4.29   15.09   10.80  Al(OH)3
	Gibbsite          6.98   15.09    8.11  Al(OH)3
	H2(g)            -8.98  -12.13   -3.15  H2
	H2O(g)           -1.51   -0.00    1.51  H2O
	Halite           -4.05   -2.46    1.58  NaCl
	O2(g)           -65.16  -68.12   -2.96  O2

Reaction step 6.

solution            1  ( 1 is Donnan, 2 is integration) 
. CB = -3.2581e-003 
K_Na\Ca (Su) =  1.1653e+000 . Na_DDl / Na0 =  1.0361e+000 f_Cl in DL charge =  3.4637e-001 
K_Na\Al (Su) =  1.4854e+000 
Using solution 1.	
Using surface 1.	Surface assemblage after simulation 1.
Using reaction 1.	

Reaction 1.	Irreversible reaction defined in simulation 1.

	 2.041e-003 moles of the following reaction have been added:

	                 Relative
	Reactant            moles

	Na                 -10.00000
	Ca                   2.00000
	Al                   2.00000

	                 Relative
	Element             moles
	Al                   2.00000
	Ca                   2.00000
	Na                 -10.00000

------------------------------Surface composition------------------------------

Su            
	 2.185e-010  Surface + diffuse layer charge, eq
	-1.000e-002  Surface charge, eq
	-9.649e-003  sigma, C/m**2
	-1.127e-002  psi, V
	 4.388e-001  -F*psi/RT
	 1.551e+000  exp(-F*psi/RT)
	 1.000e+005  specific area, m**2/g
	 1.000e+005  m**2 for  1.000e+000 g

	Water in diffuse layer: 1.000e+000 kg, 100.0% of total DDL-water.

	Total moles in diffuse layer (excluding water), Donnan calculation 

	Element       	     Moles
	Al            	 1.0749e-002
	Ca            	 1.0568e-002
	Cl            	 9.5832e-002
	H             	 1.2798e-006
	Na            	 5.2450e-002
	O             	 1.4219e-008

Su            
	 1.000e-002  moles
	                                   Mole                     Log
	Species               Moles    Fraction    Molality    Molality

	Su-              1.000e-002       1.000  1.000e-002      -2.000

-----------------------------Solution composition------------------------------

	Elements           Molality       Moles

	Al               9.663e-003  9.663e-003
	Ca               9.843e-003  9.843e-003
	Cl               9.930e-002  9.930e-002
	Na               5.062e-002  5.062e-002

----------------------------Description of solution----------------------------

                                       pH  =   6.003      Charge balance
                                       pe  =  -1.516      Adjusted to redox equilibrium
                        Activity of water  =   0.997
                           Ionic strength  =  1.381e-001
                       Mass of water (kg)  =  1.000e+000
                 Total alkalinity (eq/kg)  = -1.207e-006
                    Total carbon (mol/kg)  =  0.000e+000
                       Total CO2 (mol/kg)  =  0.000e+000
                      Temperature (deg C)  =  25.000
                  Electrical balance (eq)  =  9.330e-010
 Percent error, 100*(Cat-|An|)/(Cat+|An|)  =   0.00
                               Iterations  =   0
                                  Total H  = 1.110124e+002
                                  Total O  = 5.550622e+001

----------------------------Distribution of species----------------------------

                                                   Log       Log         Log 
   Species                 Molality    Activity  Molality  Activity     Gamma

   H+                    1.221e-006  9.923e-007    -5.913    -6.003    -0.090
   OH-                   1.365e-008  1.006e-008    -7.865    -7.997    -0.133
   H2O                   5.551e+001  9.971e-001     1.744    -0.001     0.000
Al              9.663e-003
   Al+3                  9.663e-003  1.490e-003    -2.015    -2.827    -0.812
   AlOH+2                0.000e+000  0.000e+000   -46.357   -46.825    -0.468
   Al(OH)2+              0.000e+000  0.000e+000   -90.806   -90.923    -0.117
   Al(OH)3               0.000e+000  0.000e+000  -145.734  -145.721     0.014
   Al(OH)4-              0.000e+000  0.000e+000  -199.402  -199.518    -0.117
Ca              9.843e-003
   Ca+2                  9.843e-003  3.513e-003    -2.007    -2.454    -0.447
   CaOH+                 7.668e-010  5.858e-010    -9.115    -9.232    -0.117
Cl              9.930e-002
   Cl-                   9.930e-002  7.351e-002    -1.003    -1.134    -0.131
H(0)            1.455e-012
   H2                    7.274e-013  7.509e-013   -12.138   -12.124     0.014
Na              5.062e-002
   Na+                   5.062e-002  3.868e-002    -1.296    -1.413    -0.117
   NaOH                  2.487e-010  2.568e-010    -9.604    -9.590     0.014
O(0)            0.000e+000
   O2                    0.000e+000  0.000e+000   -68.148   -68.134     0.014

------------------------------Saturation indices-------------------------------

	Phase               SI log IAP  log KT

	Al(OH)3(a)        4.38   15.18   10.80  Al(OH)3
	Gibbsite          7.07   15.18    8.11  Al(OH)3
	H2(g)            -8.97  -12.12   -3.15  H2
	H2O(g)           -1.51   -0.00    1.51  H2O
	Halite           -4.13   -2.55    1.58  NaCl
	O2(g)           -65.17  -68.13   -2.96  O2

Reaction step 7.

solution            1  ( 1 is Donnan, 2 is integration) 
. CB = -3.6959e-003 
K_Na\Ca (Su) =  1.1168e+000 . Na_DDl / Na0 =  1.0341e+000 f_Cl in DL charge =  3.2739e-001 
K_Na\Al (Su) =  1.4036e+000 
Using solution 1.	
Using surface 1.	Surface assemblage after simulation 1.
Using reaction 1.	

Reaction 1.	Irreversible reaction defined in simulation 1.

	 2.041e-003 moles of the following reaction have been added:

	                 Relative
	Reactant            moles

	Na                 -10.00000
	Ca                   2.00000
	Al                   2.00000

	                 Relative
	Element             moles
	Al                   2.00000
	Ca                   2.00000
	Na                 -10.00000

------------------------------Surface composition------------------------------

Su            
	 1.260e-010  Surface + diffuse layer charge, eq
	-1.000e-002  Surface charge, eq
	-9.649e-003  sigma, C/m**2
	-1.097e-002  psi, V
	 4.270e-001  -F*psi/RT
	 1.533e+000  exp(-F*psi/RT)
	 1.000e+005  specific area, m**2/g
	 1.000e+005  m**2 for  1.000e+000 g

	Water in diffuse layer: 1.000e+000 kg, 100.0% of total DDL-water.

	Total moles in diffuse layer (excluding water), Donnan calculation 

	Element       	     Moles
	Al            	 1.2863e-002
	Ca            	 1.2657e-002
	Cl            	 9.5927e-002
	H             	 1.2791e-006
	Na            	 4.2023e-002
	O             	 1.4444e-008

Su            
	 1.000e-002  moles
	                                   Mole                     Log
	Species               Moles    Fraction    Molality    Molality

	Su-              1.000e-002       1.000  1.000e-002      -2.000

-----------------------------Solution composition------------------------------

	Elements           Molality       Moles

	Al               1.163e-002  1.163e-002
	Ca               1.184e-002  1.184e-002
	Cl               9.920e-002  9.920e-002
	Na               4.064e-002  4.064e-002

----------------------------Description of solution----------------------------

                                       pH  =   6.004      Charge balance
                                       pe  =  -1.518      Adjusted to redox equilibrium
                        Activity of water  =   0.997
                           Ionic strength  =  1.459e-001
                       Mass of water (kg)  =  1.000e+000
                 Total alkalinity (eq/kg)  = -1.208e-006
                    Total carbon (mol/kg)  =  0.000e+000
                       Total CO2 (mol/kg)  =  0.000e+000
                      Temperature (deg C)  =  25.000
                  Electrical balance (eq)  =  1.151e-009
 Percent error, 100*(Cat-|An|)/(Cat+|An|)  =   0.00
                               Iterations  =   0
                                  Total H  = 1.110124e+002
                                  Total O  = 5.550622e+001

----------------------------Distribution of species----------------------------

                                                   Log       Log         Log 
   Species                 Molality    Activity  Molality  Activity     Gamma

   H+                    1.223e-006  9.908e-007    -5.913    -6.004    -0.091
   OH-                   1.376e-008  1.008e-008    -7.862    -7.997    -0.135
   H2O                   5.551e+001  9.972e-001     1.744    -0.001     0.000
Al              1.163e-002
   Al+3                  1.163e-002  1.750e-003    -1.934    -2.757    -0.823
   AlOH+2                0.000e+000  0.000e+000   -46.280   -46.754    -0.474
   Al(OH)2+              0.000e+000  0.000e+000   -90.733   -90.851    -0.118
   Al(OH)3               0.000e+000  0.000e+000  -145.663  -145.649     0.015
   Al(OH)4-              0.000e+000  0.000e+000  -199.327  -199.446    -0.118
Ca              1.184e-002
   Ca+2                  1.184e-002  4.159e-003    -1.927    -2.381    -0.454
   CaOH+                 9.126e-010  6.947e-010    -9.040    -9.158    -0.118
Cl              9.920e-002
   Cl-                   9.920e-002  7.303e-002    -1.003    -1.137    -0.133
H(0)            1.462e-012
   H2                    7.310e-013  7.560e-013   -12.136   -12.121     0.015
Na              4.064e-002
   Na+                   4.064e-002  3.092e-002    -1.391    -1.510    -0.119
   NaOH                  1.988e-010  2.056e-010    -9.701    -9.687     0.015
O(0)            0.000e+000
   O2                    0.000e+000  0.000e+000   -68.154   -68.139     0.015

------------------------------Saturation indices-------------------------------

	Phase               SI log IAP  log KT

	Al(OH)3(a)        4.45   15.25   10.80  Al(OH)3
	Gibbsite          7.14   15.25    8.11  Al(OH)3
	H2(g)            -8.97  -12.12   -3.15  H2
	H2O(g)           -1.51   -0.00    1.51  H2O
	Halite           -4.23   -2.65    1.58  NaCl
	O2(g)           -65.18  -68.14   -2.96  O2

Reaction step 8.

solution            1  ( 1 is Donnan, 2 is integration) 
. CB = -4.0882e-003 
K_Na\Ca (Su) =  1.0739e+000 . Na_DDl / Na0 =  1.0323e+000 f_Cl in DL charge =  3.1039e-001 
K_Na\Al (Su) =  1.3322e+000 
Using solution 1.	
Using surface 1.	Surface assemblage after simulation 1.
Using reaction 1.	

Reaction 1.	Irreversible reaction defined in simulation 1.

	 2.041e-003 moles of the following reaction have been added:

	                 Relative
	Reactant            moles

	Na                 -10.00000
	Ca                   2.00000
	Al                   2.00000

	                 Relative
	Element             moles
	Al                   2.00000
	Ca                   2.00000
	Na                 -10.00000

------------------------------Surface composition------------------------------

Su            
	 1.284e-010  Surface + diffuse layer charge, eq
	-1.000e-002  Surface charge, eq
	-9.649e-003  sigma, C/m**2
	-1.069e-002  psi, V
	 4.162e-001  -F*psi/RT
	 1.516e+000  exp(-F*psi/RT)
	 1.000e+005  specific area, m**2/g
	 1.000e+005  m**2 for  1.000e+000 g

	Water in diffuse layer: 1.000e+000 kg, 100.0% of total DDL-water.

	Total moles in diffuse layer (excluding water), Donnan calculation 

	Element       	     Moles
	Al            	 1.4969e-002
	Ca            	 1.4742e-002
	Cl            	 9.6012e-002
	H             	 1.2784e-006
	Na            	 3.1619e-002
	O             	 1.4663e-008

Su            
	 1.000e-002  moles
	                                   Mole                     Log
	Species               Moles    Fraction    Molality    Molality

	Su-              1.000e-002       1.000  1.000e-002      -2.000

-----------------------------Solution composition------------------------------

	Elements           Molality       Moles

	Al               1.361e-002  1.361e-002
	Ca               1.383e-002  1.383e-002
	Cl               9.912e-002  9.912e-002
	Na               3.063e-002  3.063e-002

----------------------------Description of solution----------------------------

                                       pH  =   6.005      Charge balance
                                       pe  =  -1.520      Adjusted to redox equilibrium
                        Activity of water  =   0.997
                           Ionic strength  =  1.538e-001
                       Mass of water (kg)  =  1.000e+000
                 Total alkalinity (eq/kg)  = -1.209e-006
                    Total carbon (mol/kg)  =  0.000e+000
                       Total CO2 (mol/kg)  =  0.000e+000
                      Temperature (deg C)  =  25.000
                  Electrical balance (eq)  =  1.277e-009
 Percent error, 100*(Cat-|An|)/(Cat+|An|)  =   0.00
                               Iterations  =   0
                                  Total H  = 1.110124e+002
                                  Total O  = 5.550622e+001

----------------------------Distribution of species----------------------------

                                                   Log       Log         Log 
   Species                 Molality    Activity  Molality  Activity     Gamma

   H+                    1.224e-006  9.893e-007    -5.912    -6.005    -0.093
   OH-                   1.386e-008  1.009e-008    -7.858    -7.996    -0.138
   H2O                   5.551e+001  9.973e-001     1.744    -0.001     0.000
Al              1.361e-002
   Al+3                  1.361e-002  2.000e-003    -1.866    -2.699    -0.833
   AlOH+2                0.000e+000  0.000e+000   -46.216   -46.695    -0.480
   Al(OH)2+              0.000e+000  0.000e+000   -90.672   -90.792    -0.120
   Al(OH)3               0.000e+000  0.000e+000  -145.604  -145.588     0.015
   Al(OH)4-              0.000e+000  0.000e+000  -199.265  -199.385    -0.120
Ca              1.383e-002
   Ca+2                  1.383e-002  4.789e-003    -1.859    -2.320    -0.461
   CaOH+                 1.056e-009  8.013e-010    -8.976    -9.096    -0.120
Cl              9.912e-002
   Cl-                   9.912e-002  7.257e-002    -1.004    -1.139    -0.135
H(0)            1.467e-012
   H2                    7.334e-013  7.598e-013   -12.135   -12.119     0.015
Na              3.063e-002
   Na+                   3.063e-002  2.322e-002    -1.514    -1.634    -0.120
   NaOH                  1.493e-010  1.547e-010    -9.826    -9.811     0.015
O(0)            0.000e+000
   O2                    0.000e+000  0.000e+000   -68.159   -68.144     0.015

------------------------------Saturation indices-------------------------------

	Phase               SI log IAP  log KT

	Al(OH)3(a)        4.51   15.31   10.80  Al(OH)3
	Gibbsite          7.20   15.31    8.11  Al(OH)3
	H2(g)            -8.97  -12.12   -3.15  H2
	H2O(g)           -1.51   -0.00    1.51  H2O
	Halite           -4.36   -2.77    1.58  NaCl
	O2(g)           -65.18  -68.14   -2.96  O2

Reaction step 9.

solution            1  ( 1 is Donnan, 2 is integration) 
. CB = -4.4418e-003 
K_Na\Ca (Su) =  1.0356e+000 . Na_DDl / Na0 =  1.0307e+000 f_Cl in DL charge =  2.9507e-001 
K_Na\Al (Su) =  1.2693e+000 
Using solution 1.	
Using surface 1.	Surface assemblage after simulation 1.
Using reaction 1.	

Reaction 1.	Irreversible reaction defined in simulation 1.

	 2.041e-003 moles of the following reaction have been added:

	                 Relative
	Reactant            moles

	Na                 -10.00000
	Ca                   2.00000
	Al                   2.00000

	                 Relative
	Element             moles
	Al                   2.00000
	Ca                   2.00000
	Na                 -10.00000

------------------------------Surface composition------------------------------

Su            
	 2.843e-010  Surface + diffuse layer charge, eq
	-1.000e-002  Surface charge, eq
	-9.649e-003  sigma, C/m**2
	-1.043e-002  psi, V
	 4.061e-001  -F*psi/RT
	 1.501e+000  exp(-F*psi/RT)
	 1.000e+005  specific area, m**2/g
	 1.000e+005  m**2 for  1.000e+000 g

	Water in diffuse layer: 1.000e+000 kg, 100.0% of total DDL-water.

	Total moles in diffuse layer (excluding water), Donnan calculation 

	Element       	     Moles
	Al            	 1.7069e-002
	Ca            	 1.6823e-002
	Cl            	 9.6088e-002
	H             	 1.2778e-006
	Na            	 2.1235e-002
	O             	 1.4874e-008

Su            
	 1.000e-002  moles
	                                   Mole                     Log
	Species               Moles    Fraction    Molality    Molality

	Su-              1.000e-002       1.000  1.000e-002      -2.000

-----------------------------Solution composition------------------------------

	Elements           Molality       Moles

	Al               1.559e-002  1.559e-002
	Ca               1.584e-002  1.584e-002
	Cl               9.904e-002  9.904e-002
	Na               2.060e-002  2.060e-002

----------------------------Description of solution----------------------------

                                       pH  =   6.005      Charge balance
                                       pe  =  -1.522      Adjusted to redox equilibrium
                        Activity of water  =   0.997
                           Ionic strength  =  1.616e-001
                       Mass of water (kg)  =  1.000e+000
                 Total alkalinity (eq/kg)  = -1.210e-006
                    Total carbon (mol/kg)  =  0.000e+000
                       Total CO2 (mol/kg)  =  0.000e+000
                      Temperature (deg C)  =  25.000
                  Electrical balance (eq)  =  1.406e-009
 Percent error, 100*(Cat-|An|)/(Cat+|An|)  =   0.00
                               Iterations  =   0
                                  Total H  = 1.110124e+002
                                  Total O  = 5.550622e+001

----------------------------Distribution of species----------------------------

                                                   Log       Log         Log 
   Species                 Molality    Activity  Molality  Activity     Gamma

   H+                    1.225e-006  9.878e-007    -5.912    -6.005    -0.094
   OH-                   1.396e-008  1.011e-008    -7.855    -7.995    -0.140
   H2O                   5.551e+001  9.974e-001     1.744    -0.001     0.000
Al              1.559e-002
   Al+3                  1.559e-002  2.241e-003    -1.807    -2.649    -0.842
   AlOH+2                0.000e+000  0.000e+000   -46.160   -46.645    -0.485
   Al(OH)2+              0.000e+000  0.000e+000   -90.620   -90.741    -0.121
   Al(OH)3               0.000e+000  0.000e+000  -145.553  -145.537     0.016
   Al(OH)4-              0.000e+000  0.000e+000  -199.211  -199.333    -0.121
Ca              1.584e-002
   Ca+2                  1.584e-002  5.406e-003    -1.800    -2.267    -0.467
   CaOH+                 1.198e-009  9.059e-010    -8.922    -9.043    -0.121
Cl              9.904e-002
   Cl-                   9.904e-002  7.214e-002    -1.004    -1.142    -0.138
H(0)            1.472e-012
   H2                    7.360e-013  7.639e-013   -12.133   -12.117     0.016
Na              2.060e-002
   Na+                   2.060e-002  1.556e-002    -1.686    -1.808    -0.122
   NaOH                  1.000e-010  1.038e-010   -10.000    -9.984     0.016
O(0)            0.000e+000
   O2                    0.000e+000  0.000e+000   -68.164   -68.148     0.016

------------------------------Saturation indices-------------------------------

	Phase               SI log IAP  log KT

	Al(OH)3(a)        4.56   15.36   10.80  Al(OH)3
	Gibbsite          7.25   15.36    8.11  Al(OH)3
	H2(g)            -8.97  -12.12   -3.15  H2
	H2O(g)           -1.51   -0.00    1.51  H2O
	Halite           -4.53   -2.95    1.58  NaCl
	O2(g)           -65.19  -68.15   -2.96  O2

Reaction step 10.

solution            1  ( 1 is Donnan, 2 is integration) 
. CB = -4.7622e-003 
K_Na\Ca (Su) =  1.0012e+000 . Na_DDl / Na0 =  1.0292e+000 f_Cl in DL charge =  2.8118e-001 
K_Na\Al (Su) =  1.2133e+000 
Using solution 1.	
Using surface 1.	Surface assemblage after simulation 1.
Using reaction 1.	

Reaction 1.	Irreversible reaction defined in simulation 1.

	 2.041e-003 moles of the following reaction have been added:

	                 Relative
	Reactant            moles

	Na                 -10.00000
	Ca                   2.00000
	Al                   2.00000

	                 Relative
	Element             moles
	Al                   2.00000
	Ca                   2.00000
	Na                 -10.00000

------------------------------Surface composition------------------------------

Su            
	 1.104e-010  Surface + diffuse layer charge, eq
	-1.000e-002  Surface charge, eq
	-9.649e-003  sigma, C/m**2
	-1.019e-002  psi, V
	 3.966e-001  -F*psi/RT
	 1.487e+000  exp(-F*psi/RT)
	 1.000e+005  specific area, m**2/g
	 1.000e+005  m**2 for  1.000e+000 g

	Water in diffuse layer: 1.000e+000 kg, 100.0% of total DDL-water.

	Total moles in diffuse layer (excluding water), Donnan calculation 

	Element       	     Moles
	Al            	 1.9164e-002
	Ca            	 1.8899e-002
	Cl            	 9.6158e-002
	H             	 1.2774e-006
	Na            	 1.0867e-002
	O             	 1.5080e-008

Su            
	 1.000e-002  moles
	                                   Mole                     Log
	Species               Moles    Fraction    Molality    Molality

	Su-              1.000e-002       1.000  1.000e-002      -2.000

-----------------------------Solution composition------------------------------

	Elements           Molality       Moles

	Al               1.758e-002  1.758e-002
	Ca               1.784e-002  1.784e-002
	Cl               9.897e-002  9.897e-002
	Na               1.056e-002  1.056e-002

----------------------------Description of solution----------------------------

                                       pH  =   6.006      Charge balance
                                       pe  =  -1.529      Adjusted to redox equilibrium
                        Activity of water  =   0.998
                           Ionic strength  =  1.695e-001
                       Mass of water (kg)  =  1.000e+000
                 Total alkalinity (eq/kg)  = -1.211e-006
                    Total carbon (mol/kg)  =  0.000e+000
                       Total CO2 (mol/kg)  =  0.000e+000
                      Temperature (deg C)  =  25.000
                  Electrical balance (eq)  =  1.690e-009
 Percent error, 100*(Cat-|An|)/(Cat+|An|)  =   0.00
                               Iterations  =   0
                                  Total H  = 1.110124e+002
                                  Total O  = 5.550622e+001

----------------------------Distribution of species----------------------------

                                                   Log       Log         Log 
   Species                 Molality    Activity  Molality  Activity     Gamma

   H+                    1.226e-006  9.863e-007    -5.911    -6.006    -0.095
   OH-                   1.405e-008  1.012e-008    -7.852    -7.995    -0.142
   H2O                   5.551e+001  9.975e-001     1.744    -0.001     0.000
Al              1.758e-002
   Al+3                  1.758e-002  2.474e-003    -1.755    -2.607    -0.851
   AlOH+2                0.000e+000  0.000e+000   -46.111   -46.602    -0.491
   Al(OH)2+              0.000e+000  0.000e+000   -90.574   -90.697    -0.123
   Al(OH)3               0.000e+000  0.000e+000  -145.509  -145.492     0.017
   Al(OH)4-              0.000e+000  0.000e+000  -199.164  -199.287    -0.123
Ca              1.784e-002
   Ca+2                  1.784e-002  6.010e-003    -1.749    -2.221    -0.473
   CaOH+                 1.338e-009  1.009e-009    -8.874    -8.996    -0.123
Cl              9.897e-002
   Cl-                   9.897e-002  7.173e-002    -1.004    -1.144    -0.140
H(0)            1.512e-012
   H2                    7.562e-013  7.863e-013   -12.121   -12.104     0.017
Na              1.056e-002
   Na+                   1.056e-002  7.947e-003    -1.976    -2.100    -0.123
   NaOH                  5.107e-011  5.310e-011   -10.292   -10.275     0.017
O(0)            0.000e+000
   O2                    0.000e+000  0.000e+000   -68.190   -68.173     0.017

------------------------------Saturation indices-------------------------------

	Phase               SI log IAP  log KT

	Al(OH)3(a)        4.61   15.41   10.80  Al(OH)3
	Gibbsite          7.30   15.41    8.11  Al(OH)3
	H2(g)            -8.95  -12.10   -3.15  H2
	H2O(g)           -1.51   -0.00    1.51  H2O
	Halite           -4.83   -3.24    1.58  NaCl
	O2(g)           -65.21  -68.17   -2.96  O2

Reaction step 11.

solution            1  ( 1 is Donnan, 2 is integration) 
. CB = -5.0538e-003 
K_Na\Ca (Su) =  9.6993e-001 . Na_DDl / Na0 =  1.0279e+000 f_Cl in DL charge =  2.6855e-001 
K_Na\Al (Su) =  1.1631e+000 
Using solution 1.	
Using surface 1.	Surface assemblage after simulation 1.
Using reaction 1.	

Reaction 1.	Irreversible reaction defined in simulation 1.

	 2.041e-003 moles of the following reaction have been added:

	                 Relative
	Reactant            moles

	Na                 -10.00000
	Ca                   2.00000
	Al                   2.00000

	                 Relative
	Element             moles
	Al                   2.00000
	Ca                   2.00000
	Na                 -10.00000

------------------------------Surface composition------------------------------

Su            
	 7.160e-011  Surface + diffuse layer charge, eq
	-1.000e-002  Surface charge, eq
	-9.649e-003  sigma, C/m**2
	-9.962e-003  psi, V
	 3.878e-001  -F*psi/RT
	 1.474e+000  exp(-F*psi/RT)
	 1.000e+005  specific area, m**2/g
	 1.000e+005  m**2 for  1.000e+000 g

	Water in diffuse layer: 1.000e+000 kg, 100.0% of total DDL-water.

	Total moles in diffuse layer (excluding water), Donnan calculation 

	Element       	     Moles
	Al            	 2.1253e-002
	Ca            	 2.0973e-002
	Cl            	 9.6221e-002
	H             	 1.2769e-006
	Na            	 5.1436e-004
	O             	 1.5281e-008

Su            
	 1.000e-002  moles
	                                   Mole                     Log
	Species               Moles    Fraction    Molality    Molality

	Su-              1.000e-002       1.000  1.000e-002      -2.000

-----------------------------Solution composition------------------------------

	Elements           Molality       Moles

	Al               1.957e-002  1.957e-002
	Ca               1.985e-002  1.985e-002
	Cl               9.891e-002  9.891e-002
	Na               5.004e-004  5.004e-004

----------------------------Description of solution----------------------------

                                       pH  =   6.007      Charge balance
                                       pe  =  -1.723      Adjusted to redox equilibrium
                        Activity of water  =   0.998
                           Ionic strength  =  1.775e-001
                       Mass of water (kg)  =  1.000e+000
                 Total alkalinity (eq/kg)  = -1.212e-006
                    Total carbon (mol/kg)  =  0.000e+000
                       Total CO2 (mol/kg)  =  0.000e+000
                      Temperature (deg C)  =  25.000
                  Electrical balance (eq)  =  1.801e-009
 Percent error, 100*(Cat-|An|)/(Cat+|An|)  =   0.00
                               Iterations  =   0
                                  Total H  = 1.110124e+002
                                  Total O  = 5.550622e+001

----------------------------Distribution of species----------------------------

                                                   Log       Log         Log 
   Species                 Molality    Activity  Molality  Activity     Gamma

   H+                    1.227e-006  9.849e-007    -5.911    -6.007    -0.096
   OH-                   1.415e-008  1.014e-008    -7.849    -7.994    -0.145
   H2O                   5.551e+001  9.976e-001     1.744    -0.001     0.000
Al              1.957e-002
   Al+3                  1.957e-002  2.700e-003    -1.708    -2.569    -0.860
   AlOH+2                0.000e+000  0.000e+000   -46.068   -46.563    -0.495
   Al(OH)2+              0.000e+000  0.000e+000   -90.534   -90.658    -0.124
   Al(OH)3               0.000e+000  0.000e+000  -145.470  -145.452     0.018
   Al(OH)4-              0.000e+000  0.000e+000  -199.123  -199.246    -0.124
Ca              1.985e-002
   Ca+2                  1.985e-002  6.602e-003    -1.702    -2.180    -0.478
   CaOH+                 1.476e-009  1.110e-009    -8.831    -8.955    -0.124
Cl              9.891e-002
   Cl-                   9.891e-002  7.134e-002    -1.005    -1.147    -0.142
H(0)            3.687e-012
   H2                    1.843e-012  1.920e-012   -11.734   -11.717     0.018
Na              5.004e-004
   Na+                   5.004e-004  3.754e-004    -3.301    -3.426    -0.125
   NaOH                  2.412e-012  2.512e-012   -11.618   -11.600     0.018
O(0)            0.000e+000
   O2                    0.000e+000  0.000e+000   -68.967   -68.949     0.018

------------------------------Saturation indices-------------------------------

	Phase               SI log IAP  log KT

	Al(OH)3(a)        4.65   15.45   10.80  Al(OH)3
	Gibbsite          7.34   15.45    8.11  Al(OH)3
	H2(g)            -8.57  -11.72   -3.15  H2
	H2O(g)           -1.51   -0.00    1.51  H2O
	Halite           -6.15   -4.57    1.58  NaCl
	O2(g)           -65.99  -68.95   -2.96  O2

------------------
End of simulation.
------------------

------------------------------------
Reading input data for simulation 2.
------------------------------------

	SURFACE 2
	 Su 1e-2 1e5 1
	 equilibrate 2
	 diff 1e-8
	USE solution 2
	USE reaction 2
	END
------------------------------------------------------
Beginning of initial surface-composition calculations.
------------------------------------------------------

Surface 2.	

Su            
	 0.000e+000  Surface + diffuse layer charge, eq
	-1.000e-002  Surface charge, eq
	-9.649e-003  sigma, C/m**2
	-1.321e-002  psi, V
	 5.141e-001  -F*psi/RT
	 1.672e+000  exp(-F*psi/RT)
	 1.000e+005  specific area, m**2/g
	 1.000e+005  m**2 for  1.000e+000 g

	Water in diffuse layer: 1.000e+000 kg, 100.0% of total DDL-water.

	Total moles in diffuse layer (excluding water)

	Element       	     Moles
	Cl            	 9.5640e-002
	H             	 1.2927e-006
	Na            	 1.0564e-001
	O             	 1.3028e-008

Su            
	 1.000e-002  moles
	                                   Mole                     Log
	Species               Moles    Fraction    Molality    Molality

	Su-              1.000e-002       1.000  1.000e-002      -2.000

-----------------------------------------
Beginning of batch-reaction calculations.
-----------------------------------------

Reaction step 1.

solution            2  ( 1 is Donnan, 2 is integration) 
. CB = -7.5693e-008 
K_Na\Ca (Su) =  1.4675e+000 . Na_DDl / Na0 =  1.0564e+000 f_Cl in DL charge =  4.3609e-001 
K_Na\Al (Su) =  2.0097e+000 
Using solution 2.	
Using surface 2.	Surface assemblage after simulation 2.
Using reaction 2.	Irreversible reaction defined in simulation 1.

Reaction 2.	Irreversible reaction defined in simulation 2.

	 1.000e-008 moles of the following reaction have been added:

	                 Relative
	Reactant            moles

	Na                 -10.00000
	Ca                   2.00000
	Al                   2.00000

	                 Relative
	Element             moles
	Al                   2.00000
	Ca                   2.00000
	Na                 -10.00000

------------------------------Surface composition------------------------------

Su            
	-5.887e-010  Surface + diffuse layer charge, eq
	-1.000e-002  Surface charge, eq
	-9.649e-003  sigma, C/m**2
	-1.321e-002  psi, V
	 5.141e-001  -F*psi/RT
	 1.672e+000  exp(-F*psi/RT)
	 1.000e+005  specific area, m**2/g
	 1.000e+005  m**2 for  1.000e+000 g

	Water in diffuse layer: 1.000e+000 kg, 100.0% of total DDL-water.

	Total moles in diffuse layer (excluding water)

	Element       	     Moles
	Al            	 1.1038e-008
	Ca            	 1.0614e-008
	Cl            	 9.5640e-002
	H             	 1.2927e-006
	Na            	 1.0564e-001
	O             	 1.3028e-008

Su            
	 1.000e-002  moles
	                                   Mole                     Log
	Species               Moles    Fraction    Molality    Molality

	Su-              1.000e-002       1.000  1.000e-002      -2.000

-----------------------------Solution composition------------------------------

	Elements           Molality       Moles

	Al               8.962e-009  8.962e-009
	Ca               9.386e-009  9.386e-009
	Cl               1.000e-001  1.000e-001
	Na               1.000e-001  1.000e-001

----------------------------Description of solution----------------------------

                                       pH  =   6.000      Charge balance
                                       pe  =  11.938      Adjusted to redox equilibrium
                        Activity of water  =   0.997
                           Ionic strength  =  1.000e-001
                       Mass of water (kg)  =  1.000e+000
                 Total alkalinity (eq/kg)  = -1.198e-006
                    Total carbon (mol/kg)  =  0.000e+000
                       Total CO2 (mol/kg)  =  0.000e+000
                      Temperature (deg C)  =  25.000
                  Electrical balance (eq)  = -1.282e-015
 Percent error, 100*(Cat-|An|)/(Cat+|An|)  =  -0.00
                               Iterations  =   0
                                  Total H  = 1.110124e+002
                                  Total O  = 5.550622e+001

----------------------------Distribution of species----------------------------

                                                   Log       Log         Log 
   Species                 Molality    Activity  Molality  Activity     Gamma

   H+                    1.211e-006  1.000e-006    -5.917    -6.000    -0.083
   OH-                   1.310e-008  9.977e-009    -7.883    -8.001    -0.118
   H2O                   5.551e+001  9.966e-001     1.744    -0.001     0.000
Al              8.962e-009
   Al+3                  8.962e-009  1.596e-009    -8.048    -8.797    -0.749
   AlOH+2                0.000e+000  0.000e+000   -52.370   -52.798    -0.428
   Al(OH)2+              0.000e+000  0.000e+000   -96.793   -96.900    -0.107
   Al(OH)3               0.000e+000  0.000e+000  -151.711  -151.701     0.010
   Al(OH)4-              0.000e+000  0.000e+000  -205.396  -205.503    -0.107
Ca              9.386e-009
   Ca+2                  9.386e-009  3.672e-009    -8.028    -8.435    -0.408
   CaOH+                 7.771e-016  6.073e-016   -15.110   -15.217    -0.107
Cl              1.000e-001
   Cl-                   1.000e-001  7.645e-002    -1.000    -1.117    -0.117
H(0)            1.838e-039
   H2                    9.189e-040  9.403e-040   -39.037   -39.027     0.010
Na              1.000e-001
   Na+                   1.000e-001  7.829e-002    -1.000    -1.106    -0.106
   NaOH                  5.038e-010  5.155e-010    -9.298    -9.288     0.010
O(0)            9.153e-015
   O2                    4.577e-015  4.683e-015   -14.339   -14.329     0.010

------------------------------Saturation indices-------------------------------

	Phase               SI log IAP  log KT

	Al(OH)3(a)       -1.60    9.20   10.80  Al(OH)3
	Gibbsite          1.09    9.20    8.11  Al(OH)3
	H2(g)           -35.88  -39.03   -3.15  H2
	H2O(g)           -1.51   -0.00    1.51  H2O
	Halite           -3.80   -2.22    1.58  NaCl
	O2(g)           -11.37  -14.33   -2.96  O2

Reaction step 2.

solution            2  ( 1 is Donnan, 2 is integration) 
. CB = -1.1154e-003 
K_Na\Ca (Su) =  1.3386e+000 . Na_DDl / Na0 =  1.0500e+000 f_Cl in DL charge =  3.9239e-001 
K_Na\Al (Su) =  1.7790e+000 
Using solution 2.	
Using surface 2.	Surface assemblage after simulation 2.
Using reaction 2.	Irreversible reaction defined in simulation 1.

Reaction 2.	Irreversible reaction defined in simulation 2.

	 2.041e-003 moles of the following reaction have been added:

	                 Relative
	Reactant            moles

	Na                 -10.00000
	Ca                   2.00000
	Al                   2.00000

	                 Relative
	Element             moles
	Al                   2.00000
	Ca                   2.00000
	Na                 -10.00000

------------------------------Surface composition------------------------------

Su            
	 4.510e-017  Surface + diffuse layer charge, eq
	-1.000e-002  Surface charge, eq
	-9.649e-003  sigma, C/m**2
	-1.240e-002  psi, V
	 4.826e-001  -F*psi/RT
	 1.620e+000  exp(-F*psi/RT)
	 1.000e+005  specific area, m**2/g
	 1.000e+005  m**2 for  1.000e+000 g

	Water in diffuse layer: 1.000e+000 kg, 100.0% of total DDL-water.

	Total moles in diffuse layer (excluding water)

	Element       	     Moles
	Al            	 2.2270e-003
	Ca            	 2.1519e-003
	Cl            	 9.5859e-002
	H             	 1.2894e-006
	Na            	 9.4873e-002
	O             	 1.3291e-008

Su            
	 1.000e-002  moles
	                                   Mole                     Log
	Species               Moles    Fraction    Molality    Molality

	Su-              1.000e-002       1.000  1.000e-002      -2.000

-----------------------------Solution composition------------------------------

	Elements           Molality       Moles

	Al               1.855e-003  1.855e-003
	Ca               1.930e-003  1.930e-003
	Cl               9.978e-002  9.978e-002
	Na               9.036e-002  9.036e-002

----------------------------Description of solution----------------------------

                                       pH  =   6.000      Charge balance
                                       pe  =  11.926      Adjusted to redox equilibrium
                        Activity of water  =   0.997
                           Ionic strength  =  1.073e-001
                       Mass of water (kg)  =  1.000e+000
                 Total alkalinity (eq/kg)  = -1.202e-006
                    Total carbon (mol/kg)  =  0.000e+000
                       Total CO2 (mol/kg)  =  0.000e+000
                      Temperature (deg C)  =  25.000
                  Electrical balance (eq)  = -5.887e-010
 Percent error, 100*(Cat-|An|)/(Cat+|An|)  =  -0.00
                               Iterations  =   1
                                  Total H  = 1.110124e+002
                                  Total O  = 5.550622e+001

----------------------------Distribution of species----------------------------

                                                   Log       Log         Log 
   Species                 Molality    Activity  Molality  Activity     Gamma

   H+                    1.215e-006  9.998e-007    -5.915    -6.000    -0.085
   OH-                   1.319e-008  9.980e-009    -7.880    -8.001    -0.121
   H2O                   5.551e+001  9.967e-001     1.744    -0.001     0.000
Al              1.855e-003
   Al+3                  1.855e-003  3.202e-004    -2.732    -3.495    -0.763
   AlOH+2                0.000e+000  0.000e+000   -47.059   -47.496    -0.437
   Al(OH)2+              0.000e+000  0.000e+000   -91.488   -91.597    -0.109
   Al(OH)3               0.000e+000  0.000e+000  -146.409  -146.399     0.011
   Al(OH)4-              0.000e+000  0.000e+000  -200.091  -200.200    -0.109
Ca              1.930e-003
   Ca+2                  1.930e-003  7.403e-004    -2.714    -3.131    -0.416
   CaOH+                 1.575e-010  1.225e-010    -9.803    -9.912    -0.109
Cl              9.978e-002
   Cl-                   9.978e-002  7.576e-002    -1.001    -1.121    -0.120
H(0)            1.944e-039
   H2                    9.720e-040  9.963e-040   -39.012   -39.002     0.011
Na              9.036e-002
   Na+                   9.036e-002  7.036e-002    -1.044    -1.153    -0.109
   NaOH                  4.521e-010  4.634e-010    -9.345    -9.334     0.011
O(0)            8.140e-015
   O2                    4.070e-015  4.172e-015   -14.390   -14.380     0.011

------------------------------Saturation indices-------------------------------

	Phase               SI log IAP  log KT

	Al(OH)3(a)        3.70   14.50   10.80  Al(OH)3
	Gibbsite          6.39   14.50    8.11  Al(OH)3
	H2(g)           -35.85  -39.00   -3.15  H2
	H2O(g)           -1.51   -0.00    1.51  H2O
	Halite           -3.86   -2.27    1.58  NaCl
	O2(g)           -11.42  -14.38   -2.96  O2

Reaction step 3.

solution            2  ( 1 is Donnan, 2 is integration) 
. CB = -1.9942e-003 
K_Na\Ca (Su) =  1.2414e+000 . Na_DDl / Na0 =  1.0451e+000 f_Cl in DL charge =  3.5778e-001 
K_Na\Al (Su) =  1.6097e+000 
Using solution 2.	
Using surface 2.	Surface assemblage after simulation 2.
Using reaction 2.	Irreversible reaction defined in simulation 1.

Reaction 2.	Irreversible reaction defined in simulation 2.

	 2.041e-003 moles of the following reaction have been added:

	                 Relative
	Reactant            moles

	Na                 -10.00000
	Ca                   2.00000
	Al                   2.00000

	                 Relative
	Element             moles
	Al                   2.00000
	Ca                   2.00000
	Na                 -10.00000

------------------------------Surface composition------------------------------

Su            
	 3.990e-017  Surface + diffuse layer charge, eq
	-1.000e-002  Surface charge, eq
	-9.649e-003  sigma, C/m**2
	-1.175e-002  psi, V
	 4.573e-001  -F*psi/RT
	 1.580e+000  exp(-F*psi/RT)
	 1.000e+005  specific area, m**2/g
	 1.000e+005  m**2 for  1.000e+000 g

	Water in diffuse layer: 1.000e+000 kg, 100.0% of total DDL-water.

	Total moles in diffuse layer (excluding water)

	Element       	     Moles
	Al            	 4.4146e-003
	Ca            	 4.2814e-003
	Cl            	 9.6032e-002
	H             	 1.2869e-006
	Na            	 8.4224e-002
	O             	 1.3544e-008

Su            
	 1.000e-002  moles
	                                   Mole                     Log
	Species               Moles    Fraction    Molality    Molality

	Su-              1.000e-002       1.000  1.000e-002      -2.000

-----------------------------Solution composition------------------------------

	Elements           Molality       Moles

	Al               3.750e-003  3.750e-003
	Ca               3.883e-003  3.883e-003
	Cl               9.961e-002  9.961e-002
	Na               8.059e-002  8.059e-002

----------------------------Description of solution----------------------------

                                       pH  =   6.000      Charge balance
                                       pe  =  -1.823      Adjusted to redox equilibrium
                        Activity of water  =   0.997
                           Ionic strength  =  1.147e-001
                       Mass of water (kg)  =  1.000e+000
                 Total alkalinity (eq/kg)  = -1.204e-006
                    Total carbon (mol/kg)  =  0.000e+000
                       Total CO2 (mol/kg)  =  0.000e+000
                      Temperature (deg C)  =  25.000
                  Electrical balance (eq)  = -5.887e-010
 Percent error, 100*(Cat-|An|)/(Cat+|An|)  =  -0.00
                               Iterations  =   1
                                  Total H  = 1.110124e+002
                                  Total O  = 5.550622e+001

----------------------------Distribution of species----------------------------

                                                   Log       Log         Log 
   Species                 Molality    Activity  Molality  Activity     Gamma

   H+                    1.218e-006  9.991e-007    -5.914    -6.000    -0.086
   OH-                   1.329e-008  9.988e-009    -7.876    -8.001    -0.124
   H2O                   5.551e+001  9.968e-001     1.744    -0.001     0.000
Al              3.750e-003
   Al+3                  3.750e-003  6.281e-004    -2.426    -3.202    -0.776
   AlOH+2                0.000e+000  0.000e+000   -46.758   -47.203    -0.445
   Al(OH)2+              0.000e+000  0.000e+000   -91.193   -91.304    -0.111
   Al(OH)3               0.000e+000  0.000e+000  -146.116  -146.105     0.011
   Al(OH)4-              0.000e+000  0.000e+000  -199.795  -199.906    -0.111
Ca              3.883e-003
   Ca+2                  3.883e-003  1.461e-003    -2.411    -2.835    -0.425
   CaOH+                 3.126e-010  2.419e-010    -9.505    -9.616    -0.111
Cl              9.961e-002
   Cl-                   9.961e-002  7.513e-002    -1.002    -1.124    -0.122
H(0)            6.087e-012
   H2                    3.044e-012  3.125e-012   -11.517   -11.505     0.011
Na              8.059e-002
   Na+                   8.059e-002  6.244e-002    -1.094    -1.205    -0.111
   NaOH                  4.009e-010  4.116e-010    -9.397    -9.385     0.011
O(0)            0.000e+000
   O2                    0.000e+000  0.000e+000   -69.384   -69.372     0.011

------------------------------Saturation indices-------------------------------

	Phase               SI log IAP  log KT

	Al(OH)3(a)        4.00   14.80   10.80  Al(OH)3
	Gibbsite          6.69   14.80    8.11  Al(OH)3
	H2(g)            -8.36  -11.51   -3.15  H2
	H2O(g)           -1.51   -0.00    1.51  H2O
	Halite           -3.91   -2.33    1.58  NaCl
	O2(g)           -66.41  -69.37   -2.96  O2

Reaction step 4.

solution            2  ( 1 is Donnan, 2 is integration) 
. CB = -2.7099e-003 
K_Na\Ca (Su) =  1.1644e+000 . Na_DDl / Na0 =  1.0411e+000 f_Cl in DL charge =  3.2948e-001 
K_Na\Al (Su) =  1.4786e+000 
Using solution 2.	
Using surface 2.	Surface assemblage after simulation 2.
Using reaction 2.	Irreversible reaction defined in simulation 1.

Reaction 2.	Irreversible reaction defined in simulation 2.

	 2.041e-003 moles of the following reaction have been added:

	                 Relative
	Reactant            moles

	Na                 -10.00000
	Ca                   2.00000
	Al                   2.00000

	                 Relative
	Element             moles
	Al                   2.00000
	Ca                   2.00000
	Na                 -10.00000

------------------------------Surface composition------------------------------

Su            
	-8.674e-018  Surface + diffuse layer charge, eq
	-1.000e-002  Surface charge, eq
	-9.649e-003  sigma, C/m**2
	-1.121e-002  psi, V
	 4.364e-001  -F*psi/RT
	 1.547e+000  exp(-F*psi/RT)
	 1.000e+005  specific area, m**2/g
	 1.000e+005  m**2 for  1.000e+000 g

	Water in diffuse layer: 1.000e+000 kg, 100.0% of total DDL-water.

	Total moles in diffuse layer (excluding water)

	Element       	     Moles
	Al            	 6.5749e-003
	Ca            	 6.3952e-003
	Cl            	 9.6173e-002
	H             	 1.2850e-006
	Na            	 7.3657e-002
	O             	 1.3789e-008

Su            
	 1.000e-002  moles
	                                   Mole                     Log
	Species               Moles    Fraction    Molality    Molality

	Su-              1.000e-002       1.000  1.000e-002      -2.000

-----------------------------Solution composition------------------------------

	Elements           Molality       Moles

	Al               5.672e-003  5.672e-003
	Ca               5.851e-003  5.851e-003
	Cl               9.947e-002  9.947e-002
	Na               7.075e-002  7.075e-002

----------------------------Description of solution----------------------------

                                       pH  =   6.001      Charge balance
                                       pe  =  -1.975      Adjusted to redox equilibrium
                        Activity of water  =   0.997
                           Ionic strength  =  1.223e-001
                       Mass of water (kg)  =  1.000e+000
                 Total alkalinity (eq/kg)  = -1.207e-006
                    Total carbon (mol/kg)  =  0.000e+000
                       Total CO2 (mol/kg)  =  0.000e+000
                      Temperature (deg C)  =  25.000
                  Electrical balance (eq)  = -5.887e-010
 Percent error, 100*(Cat-|An|)/(Cat+|An|)  =  -0.00
                               Iterations  =   1
                                  Total H  = 1.110124e+002
                                  Total O  = 5.550622e+001

----------------------------Distribution of species----------------------------

                                                   Log       Log         Log 
[...]
K_Na\Ca (Su) =  9.6305e-001 . Na_DDl / Na0 =  1.0307e+000 f_Cl in DL charge =  2.5298e-001 
K_Na\Al (Su) =  1.1491e+000 
Using solution 2.	
Using surface 2.	Surface assemblage after simulation 2.
Using reaction 2.	Irreversible reaction defined in simulation 1.

Reaction 2.	Irreversible reaction defined in simulation 2.

	 2.041e-003 moles of the following reaction have been added:

	                 Relative
	Reactant            moles

	Na                 -10.00000
	Ca                   2.00000
	Al                   2.00000

	                 Relative
	Element             moles
	Al                   2.00000
	Ca                   2.00000
	Na                 -10.00000

------------------------------Surface composition------------------------------

Su            
	-8.527e-014  Surface + diffuse layer charge, eq
	-1.000e-002  Surface charge, eq
	-9.649e-003  sigma, C/m**2
	-9.697e-003  psi, V
	 3.775e-001  -F*psi/RT
	 1.459e+000  exp(-F*psi/RT)
	 1.000e+005  specific area, m**2/g
	 1.000e+005  m**2 for  1.000e+000 g

	Water in diffuse layer: 1.000e+000 kg, 100.0% of total DDL-water.

	Total moles in diffuse layer (excluding water)

	Element       	     Moles
	Al            	 1.5060e-002
	Ca            	 1.4759e-002
	Cl            	 9.6556e-002
	H             	 1.2809e-006
	Na            	 3.1856e-002
	O             	 1.4869e-008

Su            
	 1.000e-002  moles
	                                   Mole                     Log
	Species               Moles    Fraction    Molality    Molality

	Su-              1.000e-002       1.000  1.000e-002      -2.000

-----------------------------Solution composition------------------------------

	Elements           Molality       Moles

	Al               1.352e-002  1.352e-002
	Ca               1.382e-002  1.382e-002
	Cl               9.909e-002  9.909e-002
	Na               3.091e-002  3.091e-002

----------------------------Description of solution----------------------------

                                       pH  =   6.003      Charge balance
                                       pe  =  13.012      Adjusted to redox equilibrium
                        Activity of water  =   0.997
                           Ionic strength  =  1.534e-001
                       Mass of water (kg)  =  1.000e+000
                 Total alkalinity (eq/kg)  = -1.213e-006
                    Total carbon (mol/kg)  =  0.000e+000
                       Total CO2 (mol/kg)  =  0.000e+000
                      Temperature (deg C)  =  25.000
                  Electrical balance (eq)  = -1.741e-009
 Percent error, 100*(Cat-|An|)/(Cat+|An|)  =  -0.00
                               Iterations  =   1
                                  Total H  = 1.110124e+002
                                  Total O  = 5.550622e+001

----------------------------Distribution of species----------------------------

                                                   Log       Log         Log 
   Species                 Molality    Activity  Molality  Activity     Gamma

   H+                    1.228e-006  9.929e-007    -5.911    -6.003    -0.092
   OH-                   1.380e-008  1.006e-008    -7.860    -7.998    -0.138
   H2O                   5.551e+001  9.973e-001     1.744    -0.001     0.000
Al              1.352e-002
   Al+3                  1.352e-002  1.989e-003    -1.869    -2.701    -0.832
   AlOH+2                0.000e+000  0.000e+000   -46.220   -46.700    -0.480
   Al(OH)2+              0.000e+000  0.000e+000   -90.678   -90.798    -0.120
   Al(OH)3               0.000e+000  0.000e+000  -145.611  -145.596     0.015
   Al(OH)4-              0.000e+000  0.000e+000  -199.274  -199.394    -0.120
Ca              1.382e-002
   Ca+2                  1.382e-002  4.787e-003    -1.860    -2.320    -0.460
   CaOH+                 1.052e-009  7.979e-010    -8.978    -9.098    -0.120
Cl              9.909e-002
   Cl-                   9.909e-002  7.257e-002    -1.004    -1.139    -0.135
H(0)            0.000e+000
   H2                    0.000e+000  0.000e+000   -41.196   -41.181     0.015
Na              3.091e-002
   Na+                   3.091e-002  2.343e-002    -1.510    -1.630    -0.120
   NaOH                  1.501e-010  1.555e-010    -9.824    -9.808     0.015
O(0)            1.840e-010
   O2                    9.200e-011  9.531e-011   -10.036   -10.021     0.015

------------------------------Saturation indices-------------------------------

	Phase               SI log IAP  log KT

	Al(OH)3(a)        4.50   15.30   10.80  Al(OH)3
	Gibbsite          7.19   15.30    8.11  Al(OH)3
	H2(g)           -38.03  -41.18   -3.15  H2
	H2O(g)           -1.51   -0.00    1.51  H2O
	Halite           -4.35   -2.77    1.58  NaCl
	O2(g)            -7.06  -10.02   -2.96  O2

Reaction step 9.

solution            2  ( 1 is Donnan, 2 is integration) 
. CB = -4.9739e-003 
K_Na\Ca (Su) =  9.2810e-001 . Na_DDl / Na0 =  1.0290e+000 f_Cl in DL charge =  2.3953e-001 
K_Na\Al (Su) =  1.0940e+000 
Using solution 2.	
Using surface 2.	Surface assemblage after simulation 2.
Using reaction 2.	Irreversible reaction defined in simulation 1.

Reaction 2.	Irreversible reaction defined in simulation 2.

	 2.041e-003 moles of the following reaction have been added:

	                 Relative
	Reactant            moles

	Na                 -10.00000
	Ca                   2.00000
	Al                   2.00000

	                 Relative
	Element             moles
	Al                   2.00000
	Ca                   2.00000
	Na                 -10.00000

------------------------------Surface composition------------------------------

Su            
	-4.722e-014  Surface + diffuse layer charge, eq
	-1.000e-002  Surface charge, eq
	-9.649e-003  sigma, C/m**2
	-9.418e-003  psi, V
	 3.666e-001  -F*psi/RT
	 1.443e+000  exp(-F*psi/RT)
	 1.000e+005  specific area, m**2/g
	 1.000e+005  m**2 for  1.000e+000 g

	Water in diffuse layer: 1.000e+000 kg, 100.0% of total DDL-water.

	Total moles in diffuse layer (excluding water)

	Element       	     Moles
	Al            	 1.7158e-002
	Ca            	 1.6835e-002
	Cl            	 9.6623e-002
	H             	 1.2805e-006
	Na            	 2.1478e-002
	O             	 1.5206e-008

Su            
	 1.000e-002  moles
	                                   Mole                     Log
	Species               Moles    Fraction    Molality    Molality

	Su-              1.000e-002       1.000  1.000e-002      -2.000

-----------------------------Solution composition------------------------------

	Elements           Molality       Moles

	Al               1.550e-002  1.550e-002
	Ca               1.582e-002  1.582e-002
	Cl               9.902e-002  9.902e-002
	Na               2.087e-002  2.087e-002

----------------------------Description of solution----------------------------

                                       pH  =   6.004      Charge balance
                                       pe  =  13.070      Adjusted to redox equilibrium
                        Activity of water  =   0.997
                           Ionic strength  =  1.613e-001
                       Mass of water (kg)  =  1.000e+000
                 Total alkalinity (eq/kg)  = -1.215e-006
                    Total carbon (mol/kg)  =  0.000e+000
                       Total CO2 (mol/kg)  =  0.000e+000
                      Temperature (deg C)  =  25.000
                  Electrical balance (eq)  = -1.741e-009
 Percent error, 100*(Cat-|An|)/(Cat+|An|)  =  -0.00
                               Iterations  =   1
                                  Total H  = 1.110124e+002
                                  Total O  = 5.550622e+001

----------------------------Distribution of species----------------------------

                                                   Log       Log         Log 
   Species                 Molality    Activity  Molality  Activity     Gamma

   H+                    1.230e-006  9.917e-007    -5.910    -6.004    -0.094
   OH-                   1.390e-008  1.007e-008    -7.857    -7.997    -0.140
   H2O                   5.551e+001  9.974e-001     1.744    -0.001     0.000
Al              1.550e-002
   Al+3                  1.550e-002  2.231e-003    -1.810    -2.652    -0.842
   AlOH+2                0.000e+000  0.000e+000   -46.164   -46.649    -0.485
   Al(OH)2+              0.000e+000  0.000e+000   -90.625   -90.747    -0.121
   Al(OH)3               0.000e+000  0.000e+000  -145.560  -145.544     0.016
   Al(OH)4-              0.000e+000  0.000e+000  -199.220  -199.342    -0.121
Ca              1.582e-002
   Ca+2                  1.582e-002  5.404e-003    -1.801    -2.267    -0.467
   CaOH+                 1.193e-009  9.021e-010    -8.923    -9.045    -0.121
Cl              9.902e-002
   Cl-                   9.902e-002  7.214e-002    -1.004    -1.142    -0.138
H(0)            0.000e+000
   H2                    0.000e+000  0.000e+000   -41.314   -41.298     0.016
Na              2.087e-002
   Na+                   2.087e-002  1.577e-002    -1.680    -1.802    -0.122
   NaOH                  1.010e-010  1.048e-010    -9.996    -9.980     0.016
O(0)            3.155e-010
   O2                    1.577e-010  1.637e-010    -9.802    -9.786     0.016

------------------------------Saturation indices-------------------------------

	Phase               SI log IAP  log KT

	Al(OH)3(a)        4.56   15.36   10.80  Al(OH)3
	Gibbsite          7.25   15.36    8.11  Al(OH)3
	H2(g)           -38.15  -41.30   -3.15  H2
	H2O(g)           -1.51   -0.00    1.51  H2O
	Halite           -4.53   -2.94    1.58  NaCl
	O2(g)            -6.83   -9.79   -2.96  O2

Reaction step 10.

solution            2  ( 1 is Donnan, 2 is integration) 
. CB = -5.2746e-003 
K_Na\Ca (Su) =  8.9697e-001 . Na_DDl / Na0 =  1.0274e+000 f_Cl in DL charge =  2.2755e-001 
K_Na\Al (Su) =  1.0455e+000 
Using solution 2.	
Using surface 2.	Surface assemblage after simulation 2.
Using reaction 2.	Irreversible reaction defined in simulation 1.

Reaction 2.	Irreversible reaction defined in simulation 2.

	 2.041e-003 moles of the following reaction have been added:

	                 Relative
	Reactant            moles

	Na                 -10.00000
	Ca                   2.00000
	Al                   2.00000

	                 Relative
	Element             moles
	Al                   2.00000
	Ca                   2.00000
	Na                 -10.00000

------------------------------Surface composition------------------------------

Su            
	-2.674e-014  Surface + diffuse layer charge, eq
	-1.000e-002  Surface charge, eq
	-9.649e-003  sigma, C/m**2
	-9.164e-003  psi, V
	 3.567e-001  -F*psi/RT
	 1.429e+000  exp(-F*psi/RT)
	 1.000e+005  specific area, m**2/g
	 1.000e+005  m**2 for  1.000e+000 g

	Water in diffuse layer: 1.000e+000 kg, 100.0% of total DDL-water.

	Total moles in diffuse layer (excluding water)

	Element       	     Moles
	Al            	 1.9249e-002
	Ca            	 1.8908e-002
	Cl            	 9.6683e-002
	H             	 1.2802e-006
	Na            	 1.1118e-002
	O             	 1.5496e-008

Su            
	 1.000e-002  moles
	                                   Mole                     Log
	Species               Moles    Fraction    Molality    Molality

	Su-              1.000e-002       1.000  1.000e-002      -2.000

-----------------------------Solution composition------------------------------

	Elements           Molality       Moles

	Al               1.749e-002  1.749e-002
	Ca               1.783e-002  1.783e-002
	Cl               9.896e-002  9.896e-002
	Na               1.082e-002  1.082e-002

----------------------------Description of solution----------------------------

                                       pH  =   6.004      Charge balance
                                       pe  =  13.097      Adjusted to redox equilibrium
                        Activity of water  =   0.998
                           Ionic strength  =  1.693e-001
                       Mass of water (kg)  =  1.000e+000
                 Total alkalinity (eq/kg)  = -1.216e-006
                    Total carbon (mol/kg)  =  0.000e+000
                       Total CO2 (mol/kg)  =  0.000e+000
                      Temperature (deg C)  =  25.000
                  Electrical balance (eq)  = -1.741e-009
 Percent error, 100*(Cat-|An|)/(Cat+|An|)  =  -0.00
                               Iterations  =   1
                                  Total H  = 1.110124e+002
                                  Total O  = 5.550622e+001

----------------------------Distribution of species----------------------------

                                                   Log       Log         Log 
   Species                 Molality    Activity  Molality  Activity     Gamma

   H+                    1.231e-006  9.904e-007    -5.910    -6.004    -0.095
   OH-                   1.399e-008  1.008e-008    -7.854    -7.996    -0.142
   H2O                   5.551e+001  9.975e-001     1.744    -0.001     0.000
Al              1.749e-002
   Al+3                  1.749e-002  2.464e-003    -1.757    -2.608    -0.851
   AlOH+2                0.000e+000  0.000e+000   -46.115   -46.605    -0.490
   Al(OH)2+              0.000e+000  0.000e+000   -90.579   -90.702    -0.123
   Al(OH)3               0.000e+000  0.000e+000  -145.516  -145.499     0.017
   Al(OH)4-              0.000e+000  0.000e+000  -199.173  -199.296    -0.123
Ca              1.783e-002
   Ca+2                  1.783e-002  6.010e-003    -1.749    -2.221    -0.472
   CaOH+                 1.332e-009  1.005e-009    -8.875    -8.998    -0.123
Cl              9.896e-002
   Cl-                   9.896e-002  7.173e-002    -1.005    -1.144    -0.140
H(0)            0.000e+000
   H2                    0.000e+000  0.000e+000   -41.370   -41.353     0.017
Na              1.082e-002
   Na+                   1.082e-002  8.146e-003    -1.966    -2.089    -0.123
   NaOH                  5.214e-011  5.421e-011   -10.283   -10.266     0.017
O(0)            4.058e-010
   O2                    2.029e-010  2.110e-010    -9.693    -9.676     0.017

------------------------------Saturation indices-------------------------------

	Phase               SI log IAP  log KT

	Al(OH)3(a)        4.60   15.40   10.80  Al(OH)3
	Gibbsite          7.29   15.40    8.11  Al(OH)3
	H2(g)           -38.20  -41.35   -3.15  H2
	H2O(g)           -1.51   -0.00    1.51  H2O
	Halite           -4.82   -3.23    1.58  NaCl
	O2(g)            -6.72   -9.68   -2.96  O2

Reaction step 11.

solution            2  ( 1 is Donnan, 2 is integration) 
. CB = -5.5443e-003 
K_Na\Ca (Su) =  8.6897e-001 . Na_DDl / Na0 =  1.0260e+000 f_Cl in DL charge =  2.1680e-001 
K_Na\Al (Su) =  1.0023e+000 
Using solution 2.	
Using surface 2.	Surface assemblage after simulation 2.
Using reaction 2.	Irreversible reaction defined in simulation 1.

Reaction 2.	Irreversible reaction defined in simulation 2.

	 2.041e-003 moles of the following reaction have been added:

	                 Relative
	Reactant            moles

	Na                 -10.00000
	Ca                   2.00000
	Al                   2.00000

	                 Relative
	Element             moles
	Al                   2.00000
	Ca                   2.00000
	Na                 -10.00000

------------------------------Surface composition------------------------------

Su            
	-1.526e-014  Surface + diffuse layer charge, eq
	-1.000e-002  Surface charge, eq
	-9.649e-003  sigma, C/m**2
	-8.933e-003  psi, V
	 3.477e-001  -F*psi/RT
	 1.416e+000  exp(-F*psi/RT)
	 1.000e+005  specific area, m**2/g
	 1.000e+005  m**2 for  1.000e+000 g

	Water in diffuse layer: 1.000e+000 kg, 100.0% of total DDL-water.

	Total moles in diffuse layer (excluding water)

	Element       	     Moles
	Al            	 2.1335e-002
	Ca            	 2.0978e-002
	Cl            	 9.6737e-002
	H             	 1.2798e-006
	Na            	 7.7429e-004
	O             	 1.5755e-008

Su            
	 1.000e-002  moles
	                                   Mole                     Log
	Species               Moles    Fraction    Molality    Molality

	Su-              1.000e-002       1.000  1.000e-002      -2.000

-----------------------------Solution composition------------------------------

	Elements           Molality       Moles

	Al               1.949e-002  1.949e-002
	Ca               1.984e-002  1.984e-002
	Cl               9.890e-002  9.890e-002
	Na               7.547e-004  7.547e-004

----------------------------Description of solution----------------------------

                                       pH  =   6.005      Charge balance
                                       pe  =  13.113      Adjusted to redox equilibrium
                        Activity of water  =   0.998
                           Ionic strength  =  1.772e-001
                       Mass of water (kg)  =  1.000e+000
                 Total alkalinity (eq/kg)  = -1.217e-006
                    Total carbon (mol/kg)  =  0.000e+000
                       Total CO2 (mol/kg)  =  0.000e+000
                      Temperature (deg C)  =  25.000
                  Electrical balance (eq)  = -1.741e-009
 Percent error, 100*(Cat-|An|)/(Cat+|An|)  =  -0.00
                               Iterations  =   1
                                  Total H  = 1.110124e+002
                                  Total O  = 5.550622e+001

----------------------------Distribution of species----------------------------

                                                   Log       Log         Log 
   Species                 Molality    Activity  Molality  Activity     Gamma

   H+                    1.233e-006  9.891e-007    -5.909    -6.005    -0.096
   OH-                   1.408e-008  1.010e-008    -7.851    -7.996    -0.145
   H2O                   5.551e+001  9.976e-001     1.744    -0.001     0.000
Al              1.949e-002
   Al+3                  1.949e-002  2.690e-003    -1.710    -2.570    -0.860
   AlOH+2                0.000e+000  0.000e+000   -46.071   -46.566    -0.495
   Al(OH)2+              0.000e+000  0.000e+000   -90.539   -90.663    -0.124
   Al(OH)3               0.000e+000  0.000e+000  -145.477  -145.459     0.018
   Al(OH)4-              0.000e+000  0.000e+000  -199.131  -199.255    -0.124
Ca              1.984e-002
   Ca+2                  1.984e-002  6.603e-003    -1.702    -2.180    -0.478
   CaOH+                 1.470e-009  1.105e-009    -8.833    -8.957    -0.124
Cl              9.890e-002
   Cl-                   9.890e-002  7.135e-002    -1.005    -1.147    -0.142
H(0)            0.000e+000
   H2                    0.000e+000  0.000e+000   -41.403   -41.385     0.018
Na              7.547e-004
   Na+                   7.547e-004  5.662e-004    -3.122    -3.247    -0.125
   NaOH                  3.622e-012  3.773e-012   -11.441   -11.423     0.018
O(0)            4.687e-010
   O2                    2.344e-010  2.441e-010    -9.630    -9.612     0.018

------------------------------Saturation indices-------------------------------

	Phase               SI log IAP  log KT

	Al(OH)3(a)        4.64   15.44   10.80  Al(OH)3
	Gibbsite          7.33   15.44    8.11  Al(OH)3
	H2(g)           -38.23  -41.38   -3.15  H2
	H2O(g)           -1.51   -0.00    1.51  H2O
	Halite           -5.98   -4.39    1.58  NaCl
	O2(g)            -6.65   -9.61   -2.96  O2

------------------
End of simulation.
------------------

------------------------------------
Reading input data for simulation 3.
------------------------------------

-----------
End of run.
-----------

