   Input file: iso_example
  Output file: iso_example.out
Database file: ../database/iso.dat

------------------
Reading data base.
------------------

	SOLUTION_MASTER_SPECIES
	SOLUTION_SPECIES
	PHASES
	EXCHANGE_MASTER_SPECIES
	EXCHANGE_SPECIES
	SURFACE_MASTER_SPECIES
	SURFACE_SPECIES
	SOLUTION_MASTER_SPECIES
	ISOTOPES
	ISOTOPE_RATIOS
	ISOTOPE_ALPHAS
	NAMED_EXPRESSIONS
	CALCULATE_VALUES
	CALCULATE_VALUES
	SOLUTION_SPECIES
	PHASES
------------------------------------
Reading input data for simulation 1.
------------------------------------

	DATABASE ../database/iso.dat
	SOLUTION 1
		pH	8.2
		Na	1	charge
		Ca	1	Calcite	 .1
		C	2	
		[13C]	0	# permil
		[14C]	100	# pmc
		T	10	# TU
		D	0	# permil
		[18O]	0	# permil
	END
-------------------------------------------
Beginning of initial solution calculations.
-------------------------------------------

Initial solution 1.	

-----------------------------------Isotopes------------------------------------

   Isotope	    Molality	       Moles	       Ratio	       Units

         H	1.10997e+002	1.10997e+002
         D	1.72889e-002	1.72889e-002	0.00000e+000	      permil
         T	5.55062e-016	5.55062e-016	1.00000e+001	          TU

         C	1.97789e-003	1.97789e-003
     [13C]	2.21132e-005	2.21132e-005	0.00000e+000	      permil
     [14C]	2.35178e-015	2.35178e-015	1.00000e+002	         pmc

         O	5.54011e+001	5.54011e+001
     [18O]	1.11090e-001	1.11090e-001	0.00000e+000	      permil

-----------------------------Solution composition------------------------------

	Elements           Molality       Moles

	C                2.000e-003  2.000e-003
	Ca               3.910e-004  3.910e-004  Equilibrium with Calcite
	Na               1.218e-003  1.218e-003  Charge balance

----------------------------Description of solution----------------------------

                                       pH  =   8.200    
                                       pe  =   4.000    
                        Activity of water  =   1.000
                           Ionic strength  =  2.370e-003
                       Mass of water (kg)  =  1.000e+000
                 Total alkalinity (eq/kg)  =  2.000e-003
                       Total CO2 (mol/kg)  =  2.000e-003
                      Temperature (deg C)  =  25.000
                  Electrical balance (eq)  =  1.899e-012
 Percent error, 100*(Cat-|An|)/(Cat+|An|)  =   0.00
                               Iterations  =   8
                                  Total H  = 1.109971e+002
                                  Total O  = 5.540110e+001

----------------------------Distribution of species----------------------------

                                                   Log       Log         Log 
   Species                 Molality    Activity  Molality  Activity     Gamma

   OH-                   1.675e-006  1.586e-006    -5.776    -5.800    -0.023
   H3O+                  6.632e-009  6.310e-009    -8.178    -8.200    -0.022
   H2O                   5.551e+001  9.999e-001     1.744    -0.000     0.000
C(-4)           0.000e+000
   CH4                   0.000e+000  0.000e+000   -77.793   -77.793     0.000
C(4)            2.000e-003
   HCO3-                 1.941e-003  1.840e-003    -2.712    -2.735    -0.023
   CO2                   2.609e-005  2.611e-005    -4.583    -4.583     0.000
   CO3-2                 1.695e-005  1.368e-005    -4.771    -4.864    -0.093
   CaHCO3+               7.545e-006  7.159e-006    -5.122    -5.145    -0.023
   CaCO3                 7.002e-006  7.006e-006    -5.155    -5.155     0.000
   NaHCO3                1.192e-006  1.193e-006    -5.924    -5.923     0.000
   NaCO3-                3.099e-007  2.937e-007    -6.509    -6.532    -0.023
Ca              3.910e-004
   Ca+2                  3.764e-004  3.049e-004    -3.424    -3.516    -0.091
   CaHCO3+               7.545e-006  7.159e-006    -5.122    -5.145    -0.023
   CaCO3                 7.002e-006  7.006e-006    -5.155    -5.155     0.000
   CaOH+                 8.471e-023  8.029e-023   -22.072   -22.095    -0.023
H(0)            5.634e-028
   H2                    2.817e-028  2.819e-028   -27.550   -27.550     0.000
Na              1.218e-003
   Na+                   1.216e-003  1.153e-003    -2.915    -2.938    -0.023
   NaHCO3                1.192e-006  1.193e-006    -5.924    -5.923     0.000
   NaCO3-                3.099e-007  2.937e-007    -6.509    -6.532    -0.023
   NaOH                  1.208e-023  1.209e-023   -22.918   -22.918     0.000
O(0)            1.049e-037
   O2                    5.243e-038  5.246e-038   -37.280   -37.280     0.000

------------------------------Saturation indices-------------------------------

	Phase               SI log IAP  log KT

	Calcite           0.10   -8.38   -8.48  CaCO3
	CH4(g)          -74.93  -77.79   -2.86  CH4
	CO2(g)           -3.12   -4.58   -1.47  CO2
	H2(g)           -24.40  -27.55   -3.15  H2
	H2O(g)           -1.51   -0.00    1.51  H2O
	O2(g)           -34.32  -37.28   -2.96  O2

------------------
End of simulation.
------------------

------------------------------------
Reading input data for simulation 2.
------------------------------------

	USE solution 1
	GAS_PHASE
		fixed_volume	1
		H2O(g)		0
		HDO(g)		0
		D2O(g)		0
		H2[18O](g)	0
		HD[18O](g)	0
		D2[18O](g)	0
		HTO(g)		0
		HT[18O](g)	0
		DTO(g)		0
		CO2(g)		0
		CO[18O](g)	0
		C[18O]2(g)	0
		[13C]O2(g)	0
		[13C]O[18O](g)	0
		[13C][18O]2(g)	0
		[14C]O2(g)	0
		[14C]O[18O](g)	0
		[14C][18O]2(g)	0
	SOLID_SOLUTION
	Calcite
		component	Calcite         	0
		component	CaCO2[18O](s)      	0
		component	CaCO[18O]2(s)      	0
		component	CaC[18O]3(s)       	0
		component 	Ca[13C]O3(s)       	0
		component	Ca[13C]O2[18O](s)  	0
		component	Ca[13C]O[18O]2(s)  	0
		component	Ca[13C][18O]3(s)   	0
		component 	Ca[14C]O3(s)       	0
		component	Ca[14C]O2[18O](s)  	0
		component	Ca[14C]O[18O]2(s)  	0
		component	Ca[14C][18O]3(s)   	0
	USER_PRINT
	10 PRINT "D:              ", iso("D"),              "  ", iso_unit("D")
	14 PRINT "13C:            ", iso("13C"),            "  ", iso_unit("13C")
	15 PRINT "[13C]:          ", iso("[13C]"),          "  ", iso_unit("[13C]")
	20 PRINT "R(D):           ", iso("R(D)"),           "  ", iso_unit("R(D)")
	30 PRINT "R(13C)_Calcite: ", iso("R(13C)_Calcite"), "  ", iso_unit("R(13C)_Calcite")
	40 PRINT "R(18O) OH-: ", iso("R(18O) OH-"), "  ", iso_unit("R(18O) OH-")
	50 PRINT "XXX:            ", iso("XXX"),            "  ", iso_unit("XXX")
	END
-----------------------------------------
Beginning of batch-reaction calculations.
-----------------------------------------

Reaction step 1.

Using solution 1.	
Using solid solution assemblage 1.	
Using gas phase 1.	

----------------------------------User print-----------------------------------

D:                1.6729e-003    permil 
13C:              8.6934e-002    permil 
[13C]:            8.6934e-002    permil 
R(D):             1.6729e-003    permil 
R(13C)_Calcite:   2.2082e+000    permil 
R(18O) OH-:  -3.7072e+001    permil 
XXX:                    -1000    unknown 

-----------------------------------Gas phase-----------------------------------


Total pressure:   0.0317   atmospheres
    Gas volume:  1.00e+000 liters

                                                        Moles in gas
                                            ----------------------------------
Component                log P           P     Initial       Final       Delta

[13C][18O]2(g)          -10.41  3.916e-011  0.000e+000  1.601e-012  1.601e-012
[13C]O2(g)               -5.05  8.987e-006  0.000e+000  3.673e-007  3.673e-007
[13C]O[18O](g)           -7.43  3.752e-008  0.000e+000  1.534e-009  1.534e-009
[14C][18O]2(g)          -20.38  4.133e-021  0.000e+000  1.689e-022  1.689e-022
[14C]O2(g)              -15.02  9.486e-016  0.000e+000  3.877e-017  3.877e-017
[14C]O[18O](g)          -17.40  3.960e-018  0.000e+000  1.619e-019  1.619e-019
C[18O]2(g)               -8.45  3.529e-009  0.000e+000  1.442e-010  1.442e-010
CO2(g)                   -3.09  8.100e-004  0.000e+000  3.311e-005  3.311e-005
CO[18O](g)               -5.47  3.382e-006  0.000e+000  1.382e-007  1.382e-007
D2[18O](g)              -11.89  1.276e-012  0.000e+000  5.214e-014  5.214e-014
D2O(g)                   -9.19  6.421e-010  0.000e+000  2.625e-011  2.625e-011
DTO(g)                  -22.42  3.820e-023  0.000e+000  1.561e-024  1.561e-024
H2[18O](g)               -4.21  6.125e-005  0.000e+000  2.504e-006  2.504e-006
H2O(g)                   -1.51  3.083e-002  0.000e+000  1.260e-003  1.260e-003
HD[18O](g)               -7.75  1.768e-008  0.000e+000  7.226e-010  7.226e-010
HDO(g)                   -5.05  8.899e-006  0.000e+000  3.637e-007  3.637e-007
HT[18O](g)              -21.28  5.259e-022  0.000e+000  2.149e-023  2.149e-023
HTO(g)                  -18.58  2.647e-019  0.000e+000  1.082e-020  1.082e-020

--------------------------------Solid solutions--------------------------------


Solid solution                Component        Moles  Delta moles   Mole fract

Calcite                                    3.93e-005
                                Calcite    3.87e-005    3.87e-005    9.83e-001
                          CaCO2[18O](s)    2.39e-007    2.39e-007    6.08e-003
                          CaCO[18O]2(s)    4.94e-010    4.94e-010    1.25e-005
                           CaC[18O]3(s)    3.39e-013    3.39e-013    8.63e-009
                           Ca[13C]O3(s)    4.33e-007    4.33e-007    1.10e-002
                      Ca[13C]O2[18O](s)    2.68e-009    2.68e-009    6.82e-005
                      Ca[13C]O[18O]2(s)    5.53e-012    5.53e-012    1.41e-007
                       Ca[13C][18O]3(s)    3.80e-015    3.80e-015    9.67e-011
                           Ca[14C]O3(s)    4.62e-017    4.62e-017    1.17e-012
                      Ca[14C]O2[18O](s)    2.86e-019    2.86e-019    7.26e-015
                      Ca[14C]O[18O]2(s)    5.89e-022    5.89e-022    1.50e-017
                       Ca[14C][18O]3(s)    4.05e-025    3.05e-025    1.03e-020

--------------------------------Isotope Ratios---------------------------------

            Isotope Ratio	       Ratio	    Input Units

     R(D)                	1.55760e-004	      0.0016729  permil    
     R(T)                	1.00232e-017	         10.023  TU        
     R(18O)              	2.00520e-003	      0.0001005  permil    
     R(13C)              	1.11812e-002	       0.086934  permil    
     R(14C)              	1.18924e-012	         101.14  pmc       
     R(D) H2O(l)         	1.55760e-004	      0.0016832  permil    
     R(T) H2O(l)         	5.00071e-018	         5.0007  TU        
     R(18O) H2O(l)       	2.00520e-003	     5.921e-005  permil    
     R(D) OH-            	3.70889e-005	        -761.88  permil    
     R(T) OH-            	2.83535e-019	        0.28353  TU        
     R(18O) OH-          	1.93086e-003	        -37.072  permil    
     R(D) H3O+           	1.62250e-004	         41.666  permil    
     R(T) H3O+           	5.42521e-018	         5.4252  TU        
     R(18O) H3O+         	2.05157e-003	         23.123  permil    
     R(D) H2(aq)         	1.55760e-004	      0.0016832  permil    
     R(T) H2(aq)         	5.00071e-018	         5.0007  TU        
     R(13C) CO2(aq)      	1.10863e-002	        -8.3997  permil    
     R(14C) CO2(aq)      	1.16914e-012	         99.426  pmc       
     R(18O) CO2(aq)      	2.08959e-003	         42.084  permil    
     R(D) HCO3-          	1.55760e-004	      0.0016832  permil    
     R(T) HCO3-          	5.00071e-018	         5.0007  TU        
     R(18O) HCO3-        	2.00520e-003	     5.921e-005  permil    
     R(13C) HCO3-        	1.11827e-002	         0.2271  permil    
     R(14C) HCO3-        	1.18957e-012	         101.16  pmc       
     R(18O) CO3-2        	2.00520e-003	    5.9209e-005  permil    
     R(13C) CO3-2        	1.11667e-002	        -1.2083  permil    
     R(14C) CO3-2        	1.18616e-012	         100.87  pmc       
     R(D) CH4(aq)        	1.55760e-004	      0.0016832  permil    
     R(T) CH4(aq)        	0.00000e+000	              0  TU        
     R(13C) CH4(aq)      	1.10863e-002	        -8.3997  permil    
     R(14C) CH4(aq)      	1.16914e-012	         99.426  pmc       
     R(D) H2O(g)         	1.44310e-004	        -73.512  permil    
     R(T) H2O(g)         	4.29249e-018	         4.2925  TU        
     R(18O) H2O(g)       	1.98658e-003	        -9.2865  permil    
     R(18O) CO2(g)       	2.08735e-003	         40.968  permil    
     R(13C) CO2(g)       	1.10956e-002	        -7.5673  permil    
     R(14C) CO2(g)       	1.17110e-012	         99.593  pmc       
     R(18O) Calcite      	2.06293e-003	          28.79  permil    
     R(13C) Calcite      	1.12049e-002	         2.2082  permil    
     R(14C) Calcite      	1.19429e-012	         101.56  pmc       

--------------------------------Isotope Alphas---------------------------------

                                                              1000ln(Alpha)
                                                         ----------------------
     Isotope Ratio                   Solution alpha      Solution        25.0 C

Alpha D OH-/H2O(l)                          0.23812         -1435         -1435
Alpha T OH-/H2O(l)                         0.056699         -2870         -2870
Alpha 18O OH-/H2O(l)                        0.96293       -37.777       -37.777
Alpha D H3O+/H2O(l)                          1.0417         40.82         40.82
Alpha T H3O+/H2O(l)                          1.0849        81.478         81.64
Alpha 18O H3O+/H2O(l)                        1.0231         22.86         22.86
Alpha D H2(aq)/H2O(l)                             1   -4.885e-012             0
Alpha T H2(aq)/H2O(l)                             1    5.107e-012             0
Alpha 18O CO2(aq)/H2O(l)                     1.0421        41.223        41.223
Alpha 13C CO2(aq)/CO2(g)                    0.99916      -0.83913      -0.83913
Alpha 14C CO2(aq)/CO2(g)                    0.99832       -1.6783       -1.6783
Alpha D HCO3-/H2O(l)                              1   2.2606e-009             0
Alpha T HCO3-/H2O(l)                              1    2.162e-009             0
Alpha 18O HCO3-/H2O(l)                            1  -2.3315e-012             0
Alpha 13C HCO3-/CO2(aq)                      1.0087        8.6622        8.6622
Alpha 14C HCO3-/CO2(aq)                      1.0175        17.324        17.324
Alpha 13C HCO3-/CO2(g)                       1.0079        7.8231        7.8231
Alpha 14C HCO3-/CO2(g)                       1.0158        15.646        15.646
Alpha 18O CO3-2/H2O(l)                            1  -1.5598e-009             0
Alpha 13C CO3-2/CO2(aq)                      1.0073        7.2261        7.2261
Alpha 14C CO3-2/CO2(aq)                      1.0146        14.452        14.452
Alpha 13C CO3-2/CO2(g)                       1.0064         6.387         6.387
Alpha 14C CO3-2/CO2(g)                       1.0129        12.774        12.774
Alpha D CH4(aq)/H2O(l)                            1  -1.3434e-011             0
Alpha T CH4(aq)/H2O(l)                            0         -1000             0
Alpha 13C CH4(aq)/CO2(aq)                         1  -1.0991e-011             0
Alpha 14C CH4(aq)/CO2(aq)                         1   -0.00014549             0
Alpha D H2O(g)/H2O(l)                       0.92649       -76.356       -76.356
Alpha T H2O(g)/H2O(l)                       0.85838       -152.71       -152.71
Alpha 18O H2O(g)/H2O(l)                     0.99071         -9.33         -9.33
Alpha 18O CO2(g)/H2O(l)                       1.041        40.151        40.151
Alpha 13C CO2(g)/CO2(aq)                     1.0008       0.83913       0.83913
Alpha 18O Calcite/H2O(l)                     1.0288        28.383        28.383
Alpha 13C Calcite/CO2(aq)                    1.0107        10.641        10.641
Alpha 13C Calcite/CO2(g)                     1.0099        9.8018        9.8018
Alpha 14C Calcite/CO2(aq)                    1.0215        21.282        21.282
Alpha 14C Calcite/CO2(g)                     1.0198        19.604        19.604

-----------------------------Solution composition------------------------------

	Elements           Molality       Moles

	[13C]            2.138e-005  2.131e-005
	[14C]            2.274e-015  2.266e-015
	[18O]            1.114e-001  1.111e-001
	C                1.912e-003  1.906e-003
	Ca               3.528e-004  3.516e-004
	D                1.734e-002  1.729e-002
	Na               1.222e-003  1.218e-003
	T                5.568e-016  5.551e-016

----------------------------Description of solution----------------------------

                                       pH  =   8.157      Charge balance
                                       pe  =  -2.670      Adjusted to redox equilibrium
                        Activity of water  =   0.998
                           Ionic strength  =  2.264e-003
                       Mass of water (kg)  =  9.968e-001
                 Total alkalinity (eq/kg)  =  1.927e-003
                       Total CO2 (mol/kg)  =  1.912e-003
                      Temperature (deg C)  =  25.000
                  Electrical balance (eq)  =  1.899e-012
 Percent error, 100*(Cat-|An|)/(Cat+|An|)  =   0.00
                               Iterations  =  37
                                  Total H  = 1.109946e+002
                                  Total O  = 5.539966e+001

----------------------------Distribution of species----------------------------

                                                   Log       Log         Log 
   Species                 Molality    Activity  Molality  Activity     Gamma

   OH-                   1.507e-006  1.429e-006    -5.822    -5.845    -0.023
   H3O+                  7.323e-009  6.974e-009    -8.135    -8.157    -0.021
   H2O                   5.556e+001  9.978e-001     1.745    -0.001     0.000
C(-4)           8.818e-025
   CH4                   8.813e-025  8.817e-025   -24.055   -24.055     0.000
   CH3D                  5.491e-028  5.494e-028   -27.260   -27.260     0.000
   CH2D2                 1.283e-031  1.284e-031   -30.892   -30.892     0.000
   CHD3                  1.332e-035  1.333e-035   -34.875   -34.875     0.000
   CD4                   5.187e-040  5.190e-040   -39.285   -39.285     0.000
   CH3T                  0.000e+000  0.000e+000   -40.754   -40.754     0.000
   CD3T                  0.000e+000  0.000e+000   -52.176   -52.176     0.000
   CH2T2                 0.000e+000  0.000e+000   -57.879   -57.878     0.000
   CD2T2                 0.000e+000  0.000e+000   -65.494   -65.494     0.000
   CHT3                  0.000e+000  0.000e+000   -75.356   -75.356     0.000
   CDT3                  0.000e+000  0.000e+000   -79.163   -79.163     0.000
   CT4                   0.000e+000  0.000e+000   -93.259   -93.259     0.000
C(4)            1.912e-003
   HCO3-                 1.845e-003  1.750e-003    -2.734    -2.757    -0.023
   CO2                   2.756e-005  2.758e-005    -4.560    -4.559     0.000
   CO3-2                 1.449e-005  1.175e-005    -4.839    -4.930    -0.091
   CaHCO3+               6.518e-006  6.191e-006    -5.186    -5.208    -0.022
   CaCO3                 5.466e-006  5.469e-006    -5.262    -5.262     0.000
   HC[18O]O2-            3.699e-006  3.510e-006    -5.432    -5.455    -0.023
   HCO2[18O]-            3.699e-006  3.510e-006    -5.432    -5.455    -0.023
   HCO[18O]O-            3.699e-006  3.510e-006    -5.432    -5.455    -0.023
   NaHCO3                1.140e-006  1.140e-006    -5.943    -5.943     0.000
   DCO3-                 2.873e-007  2.727e-007    -6.542    -6.564    -0.023
   NaCO3-                2.671e-007  2.534e-007    -6.573    -6.596    -0.023
   CO[18O]               1.152e-007  1.152e-007    -6.939    -6.938     0.000
   CO2[18O]-2            8.717e-008  7.067e-008    -7.060    -7.151    -0.091
   CaCO2[18O]            3.288e-008  3.290e-008    -7.483    -7.483     0.000
   CaHCO2[18O]+          1.307e-008  1.241e-008    -7.884    -7.906    -0.022
   CaHCO[18O]O+          1.307e-008  1.241e-008    -7.884    -7.906    -0.022
   CaHC[18O]O2+          1.307e-008  1.241e-008    -7.884    -7.906    -0.022
   HCO[18O]2-            7.417e-009  7.038e-009    -8.130    -8.153    -0.023
   HC[18O]2O-            7.417e-009  7.038e-009    -8.130    -8.153    -0.023
   HC[18O]O[18O]-        7.417e-009  7.038e-009    -8.130    -8.153    -0.023
   NaHCO2[18O]           2.285e-009  2.287e-009    -8.641    -8.641     0.000
   NaHC[18O]O2           2.285e-009  2.287e-009    -8.641    -8.641     0.000
   NaHCO[18O]O           2.285e-009  2.287e-009    -8.641    -8.641     0.000
   NaCO2[18O]-           1.607e-009  1.524e-009    -8.794    -8.817    -0.023
   CaDCO3+               1.015e-009  9.643e-010    -8.993    -9.016    -0.022
   DC[18O]O2-            5.762e-010  5.467e-010    -9.239    -9.262    -0.023
   DCO[18O]O-            5.762e-010  5.467e-010    -9.239    -9.262    -0.023
   DCO2[18O]-            5.762e-010  5.467e-010    -9.239    -9.262    -0.023
   NaDCO3                1.775e-010  1.776e-010    -9.751    -9.751     0.000
   CO[18O]2-2            1.748e-010  1.417e-010    -9.757    -9.849    -0.091
   C[18O]2               1.203e-010  1.204e-010    -9.920    -9.919     0.000
   CaCO[18O]2            6.594e-011  6.597e-011   -10.181   -10.181     0.000
   CaHC[18O]O[18O]+      2.621e-011  2.489e-011   -10.582   -10.604    -0.022
   CaHC[18O]2O+          2.621e-011  2.489e-011   -10.582   -10.604    -0.022
   CaHCO[18O]2+          2.621e-011  2.489e-011   -10.582   -10.604    -0.022
   HC[18O]3-             1.487e-011  1.411e-011   -10.828   -10.850    -0.023
   NaHC[18O]2O           4.583e-012  4.585e-012   -11.339   -11.339     0.000
   NaHC[18O]O[18O]       4.583e-012  4.585e-012   -11.339   -11.339     0.000
   NaHCO[18O]2           4.583e-012  4.585e-012   -11.339   -11.339     0.000
   NaCO[18O]2-           3.221e-012  3.057e-012   -11.492   -11.515    -0.023
   CaDCO2[18O]+          2.036e-012  1.934e-012   -11.691   -11.714    -0.022
   CaDC[18O]O2+          2.036e-012  1.934e-012   -11.691   -11.714    -0.022
   CaDCO[18O]O+          2.036e-012  1.934e-012   -11.691   -11.714    -0.022
   DC[18O]O[18O]-        1.155e-012  1.096e-012   -11.937   -11.960    -0.023
   DCO[18O]2-            1.155e-012  1.096e-012   -11.937   -11.960    -0.023
   DC[18O]2O-            1.155e-012  1.096e-012   -11.937   -11.960    -0.023
   NaDCO2[18O]           3.560e-013  3.562e-013   -12.449   -12.448     0.000
   NaDC[18O]O2           3.560e-013  3.562e-013   -12.449   -12.448     0.000
   NaDCO[18O]O           3.560e-013  3.562e-013   -12.449   -12.448     0.000
   C[18O]3-2             1.168e-013  9.472e-014   -12.932   -13.024    -0.091
   CaHC[18O]3+           5.255e-014  4.991e-014   -13.279   -13.302    -0.022
   CaC[18O]3             4.407e-014  4.410e-014   -13.356   -13.356     0.000
   NaHC[18O]3            9.189e-015  9.194e-015   -14.037   -14.037     0.000
   CaDCO[18O]2+          4.082e-015  3.877e-015   -14.389   -14.411    -0.022
   CaDC[18O]2O+          4.082e-015  3.877e-015   -14.389   -14.411    -0.022
   CaDC[18O]O[18O]+      4.082e-015  3.877e-015   -14.389   -14.411    -0.022
   DC[18O]3-             2.317e-015  2.198e-015   -14.635   -14.658    -0.023
   NaC[18O]3-            2.153e-015  2.043e-015   -14.667   -14.690    -0.023
   NaDC[18O]O[18O]       7.138e-016  7.142e-016   -15.146   -15.146     0.000
   NaDC[18O]2O           7.138e-016  7.142e-016   -15.146   -15.146     0.000
   NaDCO[18O]2           7.138e-016  7.142e-016   -15.146   -15.146     0.000
   CaDC[18O]3+           8.185e-018  7.774e-018   -17.087   -17.109    -0.022
   NaDC[18O]3            1.431e-018  1.432e-018   -17.844   -17.844     0.000
   TCO3-                 9.225e-021  8.754e-021   -20.035   -20.058    -0.023
   CaTCO3+               3.259e-023  3.096e-023   -22.487   -22.509    -0.022
   TCO2[18O]-            1.850e-023  1.755e-023   -22.733   -22.756    -0.023
   TCO[18O]O-            1.850e-023  1.755e-023   -22.733   -22.756    -0.023
   TC[18O]O2-            1.850e-023  1.755e-023   -22.733   -22.756    -0.023
   NaTCO3                5.699e-024  5.702e-024   -23.244   -23.244     0.000
   CaTCO[18O]O+          6.535e-026  6.208e-026   -25.185   -25.207    -0.022
   CaTCO2[18O]+          6.535e-026  6.208e-026   -25.185   -25.207    -0.022
   CaTC[18O]O2+          6.535e-026  6.208e-026   -25.185   -25.207    -0.022
   TC[18O]2O-            3.709e-026  3.520e-026   -25.431   -25.453    -0.023
   TCO[18O]2-            3.709e-026  3.520e-026   -25.431   -25.453    -0.023
   TC[18O]O[18O]-        3.709e-026  3.520e-026   -25.431   -25.453    -0.023
   NaTCO2[18O]           1.143e-026  1.143e-026   -25.942   -25.942     0.000
   NaTC[18O]O2           1.143e-026  1.143e-026   -25.942   -25.942     0.000
   NaTCO[18O]O           1.143e-026  1.143e-026   -25.942   -25.942     0.000
   CaTCO[18O]2+          1.310e-028  1.245e-028   -27.883   -27.905    -0.022
   CaTC[18O]O[18O]+      1.310e-028  1.245e-028   -27.883   -27.905    -0.022
   CaTC[18O]2O+          1.310e-028  1.245e-028   -27.883   -27.905    -0.022
   TC[18O]3-             7.438e-029  7.058e-029   -28.129   -28.151    -0.023
   NaTC[18O]2O           2.292e-029  2.293e-029   -28.640   -28.640     0.000
   NaTCO[18O]2           2.292e-029  2.293e-029   -28.640   -28.640     0.000
   NaTC[18O]O[18O]       2.292e-029  2.293e-029   -28.640   -28.640     0.000
   CaTC[18O]3+           2.628e-031  2.496e-031   -30.580   -30.603    -0.022
   NaTC[18O]3            4.595e-032  4.598e-032   -31.338   -31.337     0.000
Ca              3.528e-004
   Ca+2                  3.406e-004  2.771e-004    -3.468    -3.557    -0.090
   CaHCO3+               6.518e-006  6.191e-006    -5.186    -5.208    -0.022
   CaCO3                 5.466e-006  5.469e-006    -5.262    -5.262     0.000
   CaH[13C]O3+           7.288e-008  6.923e-008    -7.137    -7.160    -0.022
   Ca[13C]O3             6.104e-008  6.107e-008    -7.214    -7.214     0.000
   CaCO2[18O]            3.288e-008  3.290e-008    -7.483    -7.483     0.000
   CaHCO2[18O]+          1.307e-008  1.241e-008    -7.884    -7.906    -0.022
   CaHC[18O]O2+          1.307e-008  1.241e-008    -7.884    -7.906    -0.022
   CaHCO[18O]O+          1.307e-008  1.241e-008    -7.884    -7.906    -0.022
   CaDCO3+               1.015e-009  9.643e-010    -8.993    -9.016    -0.022
   Ca[13C]O2[18O]        3.672e-010  3.674e-010    -9.435    -9.435     0.000
   CaH[13C]O[18O]O+      1.461e-010  1.388e-010    -9.835    -9.858    -0.022
   CaH[13C][18O]O2+      1.461e-010  1.388e-010    -9.835    -9.858    -0.022
   CaH[13C]O2[18O]+      1.461e-010  1.388e-010    -9.835    -9.858    -0.022
   CaCO[18O]2            6.594e-011  6.597e-011   -10.181   -10.181     0.000
   CaHC[18O]2O+          2.621e-011  2.489e-011   -10.582   -10.604    -0.022
   CaHCO[18O]2+          2.621e-011  2.489e-011   -10.582   -10.604    -0.022
   CaHC[18O]O[18O]+      2.621e-011  2.489e-011   -10.582   -10.604    -0.022
   CaD[13C]O3+           1.135e-011  1.078e-011   -10.945   -10.967    -0.022
   CaDCO2[18O]+          2.036e-012  1.934e-012   -11.691   -11.714    -0.022
   CaDC[18O]O2+          2.036e-012  1.934e-012   -11.691   -11.714    -0.022
   CaDCO[18O]O+          2.036e-012  1.934e-012   -11.691   -11.714    -0.022
   Ca[13C]O[18O]2        7.363e-013  7.367e-013   -12.133   -12.133     0.000
   CaH[13C][18O]2O+      2.931e-013  2.784e-013   -12.533   -12.555    -0.022
   CaH[13C]O[18O]2+      2.931e-013  2.784e-013   -12.533   -12.555    -0.022
   CaH[13C][18O]O[18O]+  2.931e-013  2.784e-013   -12.533   -12.555    -0.022
   CaHC[18O]3+           5.255e-014  4.991e-014   -13.279   -13.302    -0.022
   CaC[18O]3             4.407e-014  4.410e-014   -13.356   -13.356     0.000
   CaD[13C]O2[18O]+      2.276e-014  2.162e-014   -13.643   -13.665    -0.022
   CaD[13C]O[18O]O+      2.276e-014  2.162e-014   -13.643   -13.665    -0.022
   CaD[13C][18O]O2+      2.276e-014  2.162e-014   -13.643   -13.665    -0.022
   CaDC[18O]O[18O]+      4.082e-015  3.877e-015   -14.389   -14.411    -0.022
   CaDC[18O]2O+          4.082e-015  3.877e-015   -14.389   -14.411    -0.022
   CaDCO[18O]2+          4.082e-015  3.877e-015   -14.389   -14.411    -0.022
   CaH[13C][18O]3+       5.876e-016  5.582e-016   -15.231   -15.253    -0.022
   Ca[13C][18O]3         4.922e-016  4.924e-016   -15.308   -15.308     0.000
   CaD[13C][18O]2O+      4.565e-017  4.336e-017   -16.341   -16.363    -0.022
   CaD[13C]O[18O]2+      4.565e-017  4.336e-017   -16.341   -16.363    -0.022
   CaD[13C][18O]O[18O]+  4.565e-017  4.336e-017   -16.341   -16.363    -0.022
   CaDC[18O]3+           8.185e-018  7.774e-018   -17.087   -17.109    -0.022
   CaH[14C]O3+           7.753e-018  7.364e-018   -17.111   -17.133    -0.022
   Ca[14C]O3             6.484e-018  6.487e-018   -17.188   -17.188     0.000
   CaD[13C][18O]3+       9.153e-020  8.694e-020   -19.038   -19.061    -0.022
   Ca[14C]O2[18O]        3.901e-020  3.903e-020   -19.409   -19.409     0.000
   CaH[14C]O[18O]O+      1.555e-020  1.477e-020   -19.808   -19.831    -0.022
   CaH[14C]O2[18O]+      1.555e-020  1.477e-020   -19.808   -19.831    -0.022
   CaH[14C][18O]O2+      1.555e-020  1.477e-020   -19.808   -19.831    -0.022
   CaD[14C]O3+           1.208e-021  1.147e-021   -20.918   -20.940    -0.022
   Ca[14C]O[18O]2        7.821e-023  7.825e-023   -22.107   -22.106     0.000
   CaOH+                 6.927e-023  6.572e-023   -22.159   -22.182    -0.023
   CaTCO3+               3.259e-023  3.096e-023   -22.487   -22.509    -0.022
   CaH[14C]O[18O]2+      3.117e-023  2.961e-023   -22.506   -22.529    -0.022
   CaH[14C][18O]2O+      3.117e-023  2.961e-023   -22.506   -22.529    -0.022
   CaH[14C][18O]O[18O]+  3.117e-023  2.961e-023   -22.506   -22.529    -0.022
   CaD[14C]O[18O]O+      2.422e-024  2.300e-024   -23.616   -23.638    -0.022
   CaD[14C][18O]O2+      2.422e-024  2.300e-024   -23.616   -23.638    -0.022
   CaD[14C]O2[18O]+      2.422e-024  2.300e-024   -23.616   -23.638    -0.022
   CaT[13C]O3+           3.645e-025  3.462e-025   -24.438   -24.461    -0.022
   Ca[18O]H+             1.337e-025  1.269e-025   -24.874   -24.897    -0.023
   CaTCO2[18O]+          6.535e-026  6.208e-026   -25.185   -25.207    -0.022
   CaTC[18O]O2+          6.535e-026  6.208e-026   -25.185   -25.207    -0.022
   CaTCO[18O]O+          6.535e-026  6.208e-026   -25.185   -25.207    -0.022
   CaH[14C][18O]3+       6.251e-026  5.937e-026   -25.204   -25.226    -0.022
   Ca[14C][18O]3         5.228e-026  5.231e-026   -25.282   -25.281     0.000
   CaD[14C]O[18O]2+      4.856e-027  4.612e-027   -26.314   -26.336    -0.022
   CaD[14C][18O]O[18O]+  4.856e-027  4.612e-027   -26.314   -26.336    -0.022
   CaD[14C][18O]2O+      4.856e-027  4.612e-027   -26.314   -26.336    -0.022
   CaOD+                 2.569e-027  2.438e-027   -26.590   -26.613    -0.023
   CaT[13C]O[18O]O+      7.308e-028  6.942e-028   -27.136   -27.159    -0.022
   CaT[13C]O2[18O]+      7.308e-028  6.942e-028   -27.136   -27.159    -0.022
   CaT[13C][18O]O2+      7.308e-028  6.942e-028   -27.136   -27.159    -0.022
   CaTC[18O]O[18O]+      1.310e-028  1.245e-028   -27.883   -27.905    -0.022
   CaTCO[18O]2+          1.310e-028  1.245e-028   -27.883   -27.905    -0.022
   CaTC[18O]2O+          1.310e-028  1.245e-028   -27.883   -27.905    -0.022
   CaD[14C][18O]3+       9.737e-030  9.248e-030   -29.012   -29.034    -0.022
   Ca[18O]D+             4.960e-030  4.707e-030   -29.304   -29.327    -0.023
   CaT[13C][18O]O[18O]+  1.465e-030  1.392e-030   -29.834   -29.856    -0.022
   CaT[13C][18O]2O+      1.465e-030  1.392e-030   -29.834   -29.856    -0.022
   CaT[13C]O[18O]2+      1.465e-030  1.392e-030   -29.834   -29.856    -0.022
   CaTC[18O]3+           2.628e-031  2.496e-031   -30.580   -30.603    -0.022
   CaT[13C][18O]3+       2.939e-033  2.791e-033   -32.532   -32.554    -0.022
   CaT[14C]O3+           3.877e-035  3.683e-035   -34.411   -34.434    -0.022
   CaT[14C]O[18O]O+      7.774e-038  7.384e-038   -37.109   -37.132    -0.022
   CaT[14C]O2[18O]+      7.774e-038  7.384e-038   -37.109   -37.132    -0.022
   CaT[14C][18O]O2+      7.774e-038  7.384e-038   -37.109   -37.132    -0.022
   CaT[14C][18O]O[18O]+  1.559e-040  1.481e-040   -39.807   -39.830    -0.022
   CaT[14C]O[18O]2+      1.559e-040  1.481e-040   -39.807   -39.830    -0.022
   CaT[14C][18O]2O+      1.559e-040  1.481e-040   -39.807   -39.830    -0.022
   CaOT+                 0.000e+000  0.000e+000   -40.707   -40.730    -0.023
   CaT[14C][18O]3+       0.000e+000  0.000e+000   -42.505   -42.527    -0.022
   Ca[18O]T+             0.000e+000  0.000e+000   -43.421   -43.444    -0.023
D(0)            2.352e-018
   HD                    2.352e-018  2.353e-018   -17.629   -17.628     0.000
   D2                    1.832e-022  1.833e-022   -21.737   -21.737     0.000
   DT                    1.176e-035  1.177e-035   -34.930   -34.929     0.000
D(1)            1.734e-002
   HDO                   1.731e-002  3.108e-004    -1.762    -3.507    -1.746
   HD[18O]               3.470e-005  6.233e-007    -4.460    -6.205    -1.746
   D2O                   1.348e-006  2.421e-008    -5.870    -7.616    -1.746
   DCO3-                 2.873e-007  2.727e-007    -6.542    -6.564    -0.023
   D[13C]O3-             3.213e-009  3.049e-009    -8.493    -8.516    -0.023
   D2[18O]               2.703e-009  4.854e-011    -8.568   -10.314    -1.746
   CaDCO3+               1.015e-009  9.643e-010    -8.993    -9.016    -0.022
   DC[18O]O2-            5.762e-010  5.467e-010    -9.239    -9.262    -0.023
   DCO[18O]O-            5.762e-010  5.467e-010    -9.239    -9.262    -0.023
   DCO2[18O]-            5.762e-010  5.467e-010    -9.239    -9.262    -0.023
   NaDCO3                1.775e-010  1.776e-010    -9.751    -9.751     0.000
   OD-                   5.588e-011  5.300e-011   -10.253   -10.276    -0.023
   CaD[13C]O3+           1.135e-011  1.078e-011   -10.945   -10.967    -0.022
   D[13C]O2[18O]-        6.443e-012  6.114e-012   -11.191   -11.214    -0.023
   D[13C]O[18O]O-        6.443e-012  6.114e-012   -11.191   -11.214    -0.023
   D[13C][18O]O2-        6.443e-012  6.114e-012   -11.191   -11.214    -0.023
   H2DO+                 3.565e-012  3.394e-012   -11.448   -11.469    -0.021
   CaDCO2[18O]+          2.036e-012  1.934e-012   -11.691   -11.714    -0.022
   CaDC[18O]O2+          2.036e-012  1.934e-012   -11.691   -11.714    -0.022
   CaDCO[18O]O+          2.036e-012  1.934e-012   -11.691   -11.714    -0.022
   NaD[13C]O3            1.985e-012  1.986e-012   -11.702   -11.702     0.000
   DC[18O]2O-            1.155e-012  1.096e-012   -11.937   -11.960    -0.023
   DC[18O]O[18O]-        1.155e-012  1.096e-012   -11.937   -11.960    -0.023
   DCO[18O]2-            1.155e-012  1.096e-012   -11.937   -11.960    -0.023
   NaDCO2[18O]           3.560e-013  3.562e-013   -12.449   -12.448     0.000
   NaDC[18O]O2           3.560e-013  3.562e-013   -12.449   -12.448     0.000
   NaDCO[18O]O           3.560e-013  3.562e-013   -12.449   -12.448     0.000
   [18O]D-               1.079e-013  1.023e-013   -12.967   -12.990    -0.023
   CaD[13C]O2[18O]+      2.276e-014  2.162e-014   -13.643   -13.665    -0.022
   CaD[13C]O[18O]O+      2.276e-014  2.162e-014   -13.643   -13.665    -0.022
   CaD[13C][18O]O2+      2.276e-014  2.162e-014   -13.643   -13.665    -0.022
   D[13C][18O]O[18O]-    1.292e-014  1.226e-014   -13.889   -13.912    -0.023
   D[13C][18O]2O-        1.292e-014  1.226e-014   -13.889   -13.912    -0.023
   D[13C]O[18O]2-        1.292e-014  1.226e-014   -13.889   -13.912    -0.023
   H2D[18O]+             7.313e-015  6.964e-015   -14.136   -14.157    -0.021
   CaDC[18O]2O+          4.082e-015  3.877e-015   -14.389   -14.411    -0.022
   CaDC[18O]O[18O]+      4.082e-015  3.877e-015   -14.389   -14.411    -0.022
   CaDCO[18O]2+          4.082e-015  3.877e-015   -14.389   -14.411    -0.022
   NaD[13C]O2[18O]       3.981e-015  3.983e-015   -14.400   -14.400     0.000
   NaD[13C]O[18O]O       3.981e-015  3.983e-015   -14.400   -14.400     0.000
   NaD[13C][18O]O2       3.981e-015  3.983e-015   -14.400   -14.400     0.000
   DC[18O]3-             2.317e-015  2.198e-015   -14.635   -14.658    -0.023
   NaDCO[18O]2           7.138e-016  7.142e-016   -15.146   -15.146     0.000
   NaDC[18O]O[18O]       7.138e-016  7.142e-016   -15.146   -15.146     0.000
   NaDC[18O]2O           7.138e-016  7.142e-016   -15.146   -15.146     0.000
   HD2O+                 5.784e-016  5.507e-016   -15.238   -15.259    -0.021
   CaD[13C][18O]O[18O]+  4.565e-017  4.336e-017   -16.341   -16.363    -0.022
   CaD[13C][18O]2O+      4.565e-017  4.336e-017   -16.341   -16.363    -0.022
   CaD[13C]O[18O]2+      4.565e-017  4.336e-017   -16.341   -16.363    -0.022
   D[13C][18O]3-         2.591e-017  2.458e-017   -16.587   -16.609    -0.023
   CaDC[18O]3+           8.185e-018  7.774e-018   -17.087   -17.109    -0.022
   NaD[13C][18O]O[18O]   7.982e-018  7.986e-018   -17.098   -17.098     0.000
   NaD[13C]O[18O]2       7.982e-018  7.986e-018   -17.098   -17.098     0.000
   NaD[13C][18O]2O       7.982e-018  7.986e-018   -17.098   -17.098     0.000
   NaDC[18O]3            1.431e-018  1.432e-018   -17.844   -17.844     0.000
   HD2[18O]+             1.187e-018  1.130e-018   -17.926   -17.947    -0.021
   D[14C]O3-             3.418e-019  3.243e-019   -18.466   -18.489    -0.023
   CaD[13C][18O]3+       9.153e-020  8.694e-020   -19.038   -19.061    -0.022
   DTO                   8.655e-020  1.554e-021   -19.063   -20.808    -1.746
   D3O+                  3.128e-020  2.979e-020   -19.505   -19.526    -0.021
   NaD[13C][18O]3        1.601e-020  1.601e-020   -19.796   -19.795     0.000
   CaD[14C]O3+           1.208e-021  1.147e-021   -20.918   -20.940    -0.022
   D[14C][18O]O2-        6.854e-022  6.504e-022   -21.164   -21.187    -0.023
   D[14C]O[18O]O-        6.854e-022  6.504e-022   -21.164   -21.187    -0.023
   D[14C]O2[18O]-        6.854e-022  6.504e-022   -21.164   -21.187    -0.023
   NaD[14C]O3            2.112e-022  2.113e-022   -21.675   -21.675     0.000
   DT[18O]               1.735e-022  3.117e-024   -21.761   -23.506    -1.746
   D3[18O]+              6.417e-023  6.111e-023   -22.193   -22.214    -0.021
   CaD[14C]O[18O]O+      2.422e-024  2.300e-024   -23.616   -23.638    -0.022
   CaD[14C]O2[18O]+      2.422e-024  2.300e-024   -23.616   -23.638    -0.022
   CaD[14C][18O]O2+      2.422e-024  2.300e-024   -23.616   -23.638    -0.022
   D[14C][18O]2O-        1.374e-024  1.304e-024   -23.862   -23.885    -0.023
   D[14C]O[18O]2-        1.374e-024  1.304e-024   -23.862   -23.885    -0.023
   D[14C][18O]O[18O]-    1.374e-024  1.304e-024   -23.862   -23.885    -0.023
   NaD[14C]O2[18O]       4.235e-025  4.237e-025   -24.373   -24.373     0.000
   NaD[14C][18O]O2       4.235e-025  4.237e-025   -24.373   -24.373     0.000
   NaD[14C]O[18O]O       4.235e-025  4.237e-025   -24.373   -24.373     0.000
   CaD[14C][18O]2O+      4.856e-027  4.612e-027   -26.314   -26.336    -0.022
   CaD[14C][18O]O[18O]+  4.856e-027  4.612e-027   -26.314   -26.336    -0.022
   CaD[14C]O[18O]2+      4.856e-027  4.612e-027   -26.314   -26.336    -0.022
   D[14C][18O]3-         2.756e-027  2.615e-027   -26.560   -26.583    -0.023
   CaOD+                 2.569e-027  2.438e-027   -26.590   -26.613    -0.023
   NaD[14C][18O]O[18O]   8.491e-028  8.495e-028   -27.071   -27.071     0.000
   NaD[14C][18O]2O       8.491e-028  8.495e-028   -27.071   -27.071     0.000
   NaD[14C]O[18O]2       8.491e-028  8.495e-028   -27.071   -27.071     0.000
   CH3D                  5.491e-028  5.494e-028   -27.260   -27.260     0.000
   NaOD                  4.055e-028  4.057e-028   -27.392   -27.392     0.000
   HDTO+                 1.934e-029  1.842e-029   -28.713   -28.735    -0.021
   CaD[14C][18O]3+       9.737e-030  9.248e-030   -29.012   -29.034    -0.022
   [13C]H3D              6.087e-030  6.090e-030   -29.216   -29.215     0.000
   Ca[18O]D+             4.960e-030  4.707e-030   -29.304   -29.327    -0.023
   NaD[14C][18O]3        1.703e-030  1.704e-030   -29.769   -29.769     0.000
   Na[18O]D              7.829e-031  7.833e-031   -30.106   -30.106     0.000
   CH2D2                 1.283e-031  1.284e-031   -30.892   -30.892     0.000
   HDT[18O]+             3.968e-032  3.779e-032   -31.401   -31.423    -0.021
   D2TO+                 3.138e-033  2.988e-033   -32.503   -32.525    -0.021
   [13C]H2D2             1.422e-033  1.423e-033   -32.847   -32.847     0.000
   CHD3                  1.332e-035  1.333e-035   -34.875   -34.875     0.000
   D2T[18O]+             6.438e-036  6.131e-036   -35.191   -35.212    -0.021
   [13C]HD3              1.477e-037  1.478e-037   -36.831   -36.830     0.000
   [14C]H3D              6.419e-040  6.423e-040   -39.193   -39.192     0.000
   CD4                   5.187e-040  5.190e-040   -39.285   -39.285     0.000
   [13C]D4               0.000e+000  0.000e+000   -41.240   -41.240     0.000
   [14C]H2D2             0.000e+000  0.000e+000   -42.824   -42.824     0.000
   DT2O+                 0.000e+000  0.000e+000   -45.979   -46.000    -0.021
   [14C]HD3              0.000e+000  0.000e+000   -46.808   -46.807     0.000
   DT2[18O]+             0.000e+000  0.000e+000   -48.667   -48.688    -0.021
   [14C]D4               0.000e+000  0.000e+000   -51.217   -51.217     0.000
   CD3T                  0.000e+000  0.000e+000   -52.176   -52.176     0.000
   [13C]D3T              0.000e+000  0.000e+000   -54.132   -54.131     0.000
   [14C]D3T              0.000e+000  0.000e+000   -64.109   -64.108     0.000
   CD2T2                 0.000e+000  0.000e+000   -65.494   -65.494     0.000
   [13C]D2T2             0.000e+000  0.000e+000   -67.449   -67.449     0.000
   [14C]D2T2             0.000e+000  0.000e+000   -77.426   -77.426     0.000
   CDT3                  0.000e+000  0.000e+000   -79.163   -79.163     0.000
   [13C]DT3              0.000e+000  0.000e+000   -81.118   -81.118     0.000
   [14C]DT3              0.000e+000  0.000e+000   -91.095   -91.095     0.000
H(0)            1.510e-014
   H2                    7.549e-015  7.553e-015   -14.122   -14.122     0.000
   HD                    2.352e-018  2.353e-018   -17.629   -17.628     0.000
   HT                    7.550e-032  7.554e-032   -31.122   -31.122     0.000
Na              1.222e-003
   Na+                   1.220e-003  1.158e-003    -2.913    -2.936    -0.023
   NaHCO3                1.140e-006  1.140e-006    -5.943    -5.943     0.000
   NaCO3-                2.671e-007  2.534e-007    -6.573    -6.596    -0.023
   NaH[13C]O3            1.275e-008  1.275e-008    -7.895    -7.894     0.000
   Na[13C]O3-            2.982e-009  2.830e-009    -8.525    -8.548    -0.023
   NaHCO2[18O]           2.285e-009  2.287e-009    -8.641    -8.641     0.000
   NaHCO[18O]O           2.285e-009  2.287e-009    -8.641    -8.641     0.000
   NaHC[18O]O2           2.285e-009  2.287e-009    -8.641    -8.641     0.000
   NaCO2[18O]-           1.607e-009  1.524e-009    -8.794    -8.817    -0.023
   NaDCO3                1.775e-010  1.776e-010    -9.751    -9.751     0.000
   NaH[13C]O2[18O]       2.556e-011  2.557e-011   -10.592   -10.592     0.000
   NaH[13C]O[18O]O       2.556e-011  2.557e-011   -10.592   -10.592     0.000
   NaH[13C][18O]O2       2.556e-011  2.557e-011   -10.592   -10.592     0.000
   Na[13C]O2[18O]-       1.794e-011  1.702e-011   -10.746   -10.769    -0.023
   NaHC[18O]2O           4.583e-012  4.585e-012   -11.339   -11.339     0.000
   NaHC[18O]O[18O]       4.583e-012  4.585e-012   -11.339   -11.339     0.000
   NaHCO[18O]2           4.583e-012  4.585e-012   -11.339   -11.339     0.000
   NaCO[18O]2-           3.221e-012  3.057e-012   -11.492   -11.515    -0.023
   NaD[13C]O3            1.985e-012  1.986e-012   -11.702   -11.702     0.000
   NaDCO2[18O]           3.560e-013  3.562e-013   -12.449   -12.448     0.000
   NaDC[18O]O2           3.560e-013  3.562e-013   -12.449   -12.448     0.000
   NaDCO[18O]O           3.560e-013  3.562e-013   -12.449   -12.448     0.000
   NaH[13C][18O]2O       5.125e-014  5.127e-014   -13.290   -13.290     0.000
   NaH[13C][18O]O[18O]   5.125e-014  5.127e-014   -13.290   -13.290     0.000
   NaH[13C]O[18O]2       5.125e-014  5.127e-014   -13.290   -13.290     0.000
   Na[13C]O[18O]2-       3.597e-014  3.413e-014   -13.444   -13.467    -0.023
   NaHC[18O]3            9.189e-015  9.194e-015   -14.037   -14.037     0.000
   NaD[13C]O[18O]O       3.981e-015  3.983e-015   -14.400   -14.400     0.000
   NaD[13C][18O]O2       3.981e-015  3.983e-015   -14.400   -14.400     0.000
   NaD[13C]O2[18O]       3.981e-015  3.983e-015   -14.400   -14.400     0.000
   NaC[18O]3-            2.153e-015  2.043e-015   -14.667   -14.690    -0.023
   NaDCO[18O]2           7.138e-016  7.142e-016   -15.146   -15.146     0.000
   NaDC[18O]2O           7.138e-016  7.142e-016   -15.146   -15.146     0.000
   NaDC[18O]O[18O]       7.138e-016  7.142e-016   -15.146   -15.146     0.000
   NaH[13C][18O]3        1.028e-016  1.028e-016   -15.988   -15.988     0.000
   Na[13C][18O]3-        2.404e-017  2.282e-017   -16.619   -16.642    -0.023
   NaD[13C][18O]2O       7.982e-018  7.986e-018   -17.098   -17.098     0.000
   NaD[13C]O[18O]2       7.982e-018  7.986e-018   -17.098   -17.098     0.000
   NaD[13C][18O]O[18O]   7.982e-018  7.986e-018   -17.098   -17.098     0.000
   NaDC[18O]3            1.431e-018  1.432e-018   -17.844   -17.844     0.000
   NaH[14C]O3            1.356e-018  1.356e-018   -17.868   -17.868     0.000
   Na[14C]O3-            3.168e-019  3.006e-019   -18.499   -18.522    -0.023
   NaD[13C][18O]3        1.601e-020  1.601e-020   -19.796   -19.795     0.000
   NaH[14C]O[18O]O       2.719e-021  2.720e-021   -20.566   -20.565     0.000
   NaH[14C]O2[18O]       2.719e-021  2.720e-021   -20.566   -20.565     0.000
   NaH[14C][18O]O2       2.719e-021  2.720e-021   -20.566   -20.565     0.000
   Na[14C]O2[18O]-       1.906e-021  1.808e-021   -20.720   -20.743    -0.023
   NaD[14C]O3            2.112e-022  2.113e-022   -21.675   -21.675     0.000
   NaOH                  1.093e-023  1.094e-023   -22.961   -22.961     0.000
   NaTCO3                5.699e-024  5.702e-024   -23.244   -23.244     0.000
   NaH[14C]O[18O]2       5.451e-024  5.454e-024   -23.263   -23.263     0.000
   NaH[14C][18O]2O       5.451e-024  5.454e-024   -23.263   -23.263     0.000
   NaH[14C][18O]O[18O]   5.451e-024  5.454e-024   -23.263   -23.263     0.000
   Na[14C]O[18O]2-       3.821e-024  3.626e-024   -23.418   -23.441    -0.023
   NaD[14C]O[18O]O       4.235e-025  4.237e-025   -24.373   -24.373     0.000
   NaD[14C]O2[18O]       4.235e-025  4.237e-025   -24.373   -24.373     0.000
   NaD[14C][18O]O2       4.235e-025  4.237e-025   -24.373   -24.373     0.000
   NaT[13C]O3            6.373e-026  6.377e-026   -25.196   -25.195     0.000
   Na[18O]H              2.111e-026  2.112e-026   -25.676   -25.675     0.000
   NaTC[18O]O2           1.143e-026  1.143e-026   -25.942   -25.942     0.000
   NaTCO2[18O]           1.143e-026  1.143e-026   -25.942   -25.942     0.000
   NaTCO[18O]O           1.143e-026  1.143e-026   -25.942   -25.942     0.000
   NaH[14C][18O]3        1.093e-026  1.094e-026   -25.961   -25.961     0.000
   Na[14C][18O]3-        2.554e-027  2.424e-027   -26.593   -26.616    -0.023
   NaD[14C][18O]O[18O]   8.491e-028  8.495e-028   -27.071   -27.071     0.000
   NaD[14C]O[18O]2       8.491e-028  8.495e-028   -27.071   -27.071     0.000
   NaD[14C][18O]2O       8.491e-028  8.495e-028   -27.071   -27.071     0.000
   NaOD                  4.055e-028  4.057e-028   -27.392   -27.392     0.000
   NaT[13C][18O]O2       1.278e-028  1.279e-028   -27.893   -27.893     0.000
   NaT[13C]O2[18O]       1.278e-028  1.279e-028   -27.893   -27.893     0.000
   NaT[13C]O[18O]O       1.278e-028  1.279e-028   -27.893   -27.893     0.000
   NaTC[18O]O[18O]       2.292e-029  2.293e-029   -28.640   -28.640     0.000
   NaTC[18O]2O           2.292e-029  2.293e-029   -28.640   -28.640     0.000
   NaTCO[18O]2           2.292e-029  2.293e-029   -28.640   -28.640     0.000
   NaD[14C][18O]3        1.703e-030  1.704e-030   -29.769   -29.769     0.000
   Na[18O]D              7.829e-031  7.833e-031   -30.106   -30.106     0.000
   NaT[13C]O[18O]2       2.563e-031  2.564e-031   -30.591   -30.591     0.000
   NaT[13C][18O]2O       2.563e-031  2.564e-031   -30.591   -30.591     0.000
   NaT[13C][18O]O[18O]   2.563e-031  2.564e-031   -30.591   -30.591     0.000
   NaTC[18O]3            4.595e-032  4.598e-032   -31.338   -31.337     0.000
   NaT[13C][18O]3        5.139e-034  5.141e-034   -33.289   -33.289     0.000
   NaT[14C]O3            6.780e-036  6.783e-036   -35.169   -35.169     0.000
   NaT[14C]O[18O]O       1.359e-038  1.360e-038   -37.867   -37.866     0.000
   NaT[14C][18O]O2       1.359e-038  1.360e-038   -37.867   -37.866     0.000
   NaT[14C]O2[18O]       1.359e-038  1.360e-038   -37.867   -37.866     0.000
   NaT[14C]O[18O]2       0.000e+000  0.000e+000   -40.564   -40.564     0.000
   NaT[14C][18O]O[18O]   0.000e+000  0.000e+000   -40.564   -40.564     0.000
   NaT[14C][18O]2O       0.000e+000  0.000e+000   -40.564   -40.564     0.000
   NaOT                  0.000e+000  0.000e+000   -41.509   -41.508     0.000
   NaT[14C][18O]3        0.000e+000  0.000e+000   -43.262   -43.262     0.000
   Na[18O]T              0.000e+000  0.000e+000   -44.223   -44.223     0.000
O(0)            0.000e+000
   O2                    0.000e+000  0.000e+000   -64.138   -64.138     0.000
   O[18O]                0.000e+000  0.000e+000   -66.535   -66.535     0.000
T(0)            7.552e-032
   HT                    7.550e-032  7.554e-032   -31.122   -31.122     0.000
   DT                    1.176e-035  1.177e-035   -34.930   -34.929     0.000
   T2                    0.000e+000  0.000e+000   -48.724   -48.724     0.000
T(1)            5.568e-016
   HTO                   5.556e-016  9.979e-018   -15.255   -17.001    -1.746
   HT[18O]               1.114e-018  2.001e-020   -17.953   -19.699    -1.746
   DTO                   8.655e-020  1.554e-021   -19.063   -20.808    -1.746
   TCO3-                 9.225e-021  8.754e-021   -20.035   -20.058    -0.023
   DT[18O]               1.735e-022  3.117e-024   -21.761   -23.506    -1.746
   T[13C]O3-             1.032e-022  9.789e-023   -21.986   -22.009    -0.023
   CaTCO3+               3.259e-023  3.096e-023   -22.487   -22.509    -0.022
   TCO[18O]O-            1.850e-023  1.755e-023   -22.733   -22.756    -0.023
   TCO2[18O]-            1.850e-023  1.755e-023   -22.733   -22.756    -0.023
   TC[18O]O2-            1.850e-023  1.755e-023   -22.733   -22.756    -0.023
   NaTCO3                5.699e-024  5.702e-024   -23.244   -23.244     0.000
   OT-                   4.272e-025  4.052e-025   -24.369   -24.392    -0.023
   CaT[13C]O3+           3.645e-025  3.462e-025   -24.438   -24.461    -0.022
   T[13C]O[18O]O-        2.069e-025  1.963e-025   -24.684   -24.707    -0.023
   T[13C][18O]O2-        2.069e-025  1.963e-025   -24.684   -24.707    -0.023
   T[13C]O2[18O]-        2.069e-025  1.963e-025   -24.684   -24.707    -0.023
   H2TO+                 1.192e-025  1.135e-025   -24.924   -24.945    -0.021
   CaTCO[18O]O+          6.535e-026  6.208e-026   -25.185   -25.207    -0.022
   CaTCO2[18O]+          6.535e-026  6.208e-026   -25.185   -25.207    -0.022
   CaTC[18O]O2+          6.535e-026  6.208e-026   -25.185   -25.207    -0.022
   NaT[13C]O3            6.373e-026  6.377e-026   -25.196   -25.195     0.000
   TCO[18O]2-            3.709e-026  3.520e-026   -25.431   -25.453    -0.023
   TC[18O]O[18O]-        3.709e-026  3.520e-026   -25.431   -25.453    -0.023
   TC[18O]2O-            3.709e-026  3.520e-026   -25.431   -25.453    -0.023
   NaTCO[18O]O           1.143e-026  1.143e-026   -25.942   -25.942     0.000
   NaTC[18O]O2           1.143e-026  1.143e-026   -25.942   -25.942     0.000
   NaTCO2[18O]           1.143e-026  1.143e-026   -25.942   -25.942     0.000
   [18O]T-               8.249e-028  7.824e-028   -27.084   -27.107    -0.023
   CaT[13C][18O]O2+      7.308e-028  6.942e-028   -27.136   -27.159    -0.022
   CaT[13C]O2[18O]+      7.308e-028  6.942e-028   -27.136   -27.159    -0.022
   CaT[13C]O[18O]O+      7.308e-028  6.942e-028   -27.136   -27.159    -0.022
   T[13C]O[18O]2-        4.148e-028  3.936e-028   -27.382   -27.405    -0.023
   T[13C][18O]O[18O]-    4.148e-028  3.936e-028   -27.382   -27.405    -0.023
   T[13C][18O]2O-        4.148e-028  3.936e-028   -27.382   -27.405    -0.023
   H2T[18O]+             2.446e-028  2.329e-028   -27.612   -27.633    -0.021
   CaTC[18O]2O+          1.310e-028  1.245e-028   -27.883   -27.905    -0.022
   CaTC[18O]O[18O]+      1.310e-028  1.245e-028   -27.883   -27.905    -0.022
   CaTCO[18O]2+          1.310e-028  1.245e-028   -27.883   -27.905    -0.022
   NaT[13C]O[18O]O       1.278e-028  1.279e-028   -27.893   -27.893     0.000
   NaT[13C][18O]O2       1.278e-028  1.279e-028   -27.893   -27.893     0.000
   NaT[13C]O2[18O]       1.278e-028  1.279e-028   -27.893   -27.893     0.000
   TC[18O]3-             7.438e-029  7.058e-029   -28.129   -28.151    -0.023
   NaTC[18O]O[18O]       2.292e-029  2.293e-029   -28.640   -28.640     0.000
   NaTC[18O]2O           2.292e-029  2.293e-029   -28.640   -28.640     0.000
   NaTCO[18O]2           2.292e-029  2.293e-029   -28.640   -28.640     0.000
   HDTO+                 1.934e-029  1.842e-029   -28.713   -28.735    -0.021
   CaT[13C][18O]O[18O]+  1.465e-030  1.392e-030   -29.834   -29.856    -0.022
   CaT[13C]O[18O]2+      1.465e-030  1.392e-030   -29.834   -29.856    -0.022
   CaT[13C][18O]2O+      1.465e-030  1.392e-030   -29.834   -29.856    -0.022
   T[13C][18O]3-         8.317e-031  7.892e-031   -30.080   -30.103    -0.023
   CaTC[18O]3+           2.628e-031  2.496e-031   -30.580   -30.603    -0.022
   NaT[13C]O[18O]2       2.563e-031  2.564e-031   -30.591   -30.591     0.000
   NaT[13C][18O]2O       2.563e-031  2.564e-031   -30.591   -30.591     0.000
   NaT[13C][18O]O[18O]   2.563e-031  2.564e-031   -30.591   -30.591     0.000
   NaTC[18O]3            4.595e-032  4.598e-032   -31.338   -31.337     0.000
   HDT[18O]+             3.968e-032  3.779e-032   -31.401   -31.423    -0.021
   T[14C]O3-             1.097e-032  1.041e-032   -31.960   -31.982    -0.023
   D2TO+                 3.138e-033  2.988e-033   -32.503   -32.525    -0.021
   CaT[13C][18O]3+       2.939e-033  2.791e-033   -32.532   -32.554    -0.022
   T2O                   1.389e-033  2.495e-035   -32.857   -34.603    -1.746
   NaT[13C][18O]3        5.139e-034  5.141e-034   -33.289   -33.289     0.000
   CaT[14C]O3+           3.877e-035  3.683e-035   -34.411   -34.434    -0.022
   T[14C]O[18O]O-        2.200e-035  2.088e-035   -34.657   -34.680    -0.023
   T[14C]O2[18O]-        2.200e-035  2.088e-035   -34.657   -34.680    -0.023
   T[14C][18O]O2-        2.200e-035  2.088e-035   -34.657   -34.680    -0.023
   NaT[14C]O3            6.780e-036  6.783e-036   -35.169   -35.169     0.000
   D2T[18O]+             6.438e-036  6.131e-036   -35.191   -35.212    -0.021
   T2[18O]               2.786e-036  5.003e-038   -35.555   -37.301    -1.746
   CaT[14C][18O]O2+      7.774e-038  7.384e-038   -37.109   -37.132    -0.022
   CaT[14C]O[18O]O+      7.774e-038  7.384e-038   -37.109   -37.132    -0.022
   CaT[14C]O2[18O]+      7.774e-038  7.384e-038   -37.109   -37.132    -0.022
   T[14C][18O]2O-        4.412e-038  4.187e-038   -37.355   -37.378    -0.023
   T[14C]O[18O]2-        4.412e-038  4.187e-038   -37.355   -37.378    -0.023
   T[14C][18O]O[18O]-    4.412e-038  4.187e-038   -37.355   -37.378    -0.023
   NaT[14C][18O]O2       1.359e-038  1.360e-038   -37.867   -37.866     0.000
   NaT[14C]O[18O]O       1.359e-038  1.360e-038   -37.867   -37.866     0.000
   NaT[14C]O2[18O]       1.359e-038  1.360e-038   -37.867   -37.866     0.000
   CaT[14C][18O]O[18O]+  1.559e-040  1.481e-040   -39.807   -39.830    -0.022
   CaT[14C][18O]2O+      1.559e-040  1.481e-040   -39.807   -39.830    -0.022
   CaT[14C]O[18O]2+      1.559e-040  1.481e-040   -39.807   -39.830    -0.022
   T[14C][18O]3-         0.000e+000  0.000e+000   -40.053   -40.076    -0.023
   NaT[14C][18O]O[18O]   0.000e+000  0.000e+000   -40.564   -40.564     0.000
   NaT[14C][18O]2O       0.000e+000  0.000e+000   -40.564   -40.564     0.000
   NaT[14C]O[18O]2       0.000e+000  0.000e+000   -40.564   -40.564     0.000
   CaOT+                 0.000e+000  0.000e+000   -40.707   -40.730    -0.023
   CH3T                  0.000e+000  0.000e+000   -40.754   -40.754     0.000
   NaOT                  0.000e+000  0.000e+000   -41.509   -41.508     0.000
   HT2O+                 0.000e+000  0.000e+000   -42.189   -42.210    -0.021
   CaT[14C][18O]3+       0.000e+000  0.000e+000   -42.505   -42.527    -0.022
   [13C]H3T              0.000e+000  0.000e+000   -42.709   -42.709     0.000
   NaT[14C][18O]3        0.000e+000  0.000e+000   -43.262   -43.262     0.000
   Ca[18O]T+             0.000e+000  0.000e+000   -43.421   -43.444    -0.023
   Na[18O]T              0.000e+000  0.000e+000   -44.223   -44.223     0.000
   HT2[18O]+             0.000e+000  0.000e+000   -44.877   -44.898    -0.021
   DT2O+                 0.000e+000  0.000e+000   -45.979   -46.000    -0.021
   DT2[18O]+             0.000e+000  0.000e+000   -48.667   -48.688    -0.021
   CD3T                  0.000e+000  0.000e+000   -52.176   -52.176     0.000
   [14C]H3T              0.000e+000  0.000e+000   -52.686   -52.686     0.000
   [13C]D3T              0.000e+000  0.000e+000   -54.132   -54.131     0.000
   CH2T2                 0.000e+000  0.000e+000   -57.879   -57.878     0.000
   [13C]H2T2             0.000e+000  0.000e+000   -59.834   -59.834     0.000
   T3O+                  0.000e+000  0.000e+000   -59.932   -59.953    -0.021
   T3[18O]+              0.000e+000  0.000e+000   -62.620   -62.641    -0.021
   [14C]D3T              0.000e+000  0.000e+000   -64.109   -64.108     0.000
   CD2T2                 0.000e+000  0.000e+000   -65.494   -65.494     0.000
   [13C]D2T2             0.000e+000  0.000e+000   -67.449   -67.449     0.000
   [14C]H2T2             0.000e+000  0.000e+000   -69.811   -69.811     0.000
   CHT3                  0.000e+000  0.000e+000   -75.356   -75.356     0.000
   [13C]HT3              0.000e+000  0.000e+000   -77.311   -77.311     0.000
   [14C]D2T2             0.000e+000  0.000e+000   -77.426   -77.426     0.000
   CDT3                  0.000e+000  0.000e+000   -79.163   -79.163     0.000
   [13C]DT3              0.000e+000  0.000e+000   -81.118   -81.118     0.000
   [14C]HT3              0.000e+000  0.000e+000   -87.288   -87.288     0.000
   [14C]DT3              0.000e+000  0.000e+000   -91.095   -91.095     0.000
   CT4                   0.000e+000  0.000e+000   -93.259   -93.259     0.000
   [13C]T4               0.000e+000  0.000e+000   -95.214   -95.214     0.000
   [14C]T4               0.000e+000  0.000e+000  -105.191  -105.191     0.000
[13C](-4)       9.776e-027
   [13C]H4               9.770e-027  9.775e-027   -26.010   -26.010     0.000
   [13C]H3D              6.087e-030  6.090e-030   -29.216   -29.215     0.000
   [13C]H2D2             1.422e-033  1.423e-033   -32.847   -32.847     0.000
   [13C]HD3              1.477e-037  1.478e-037   -36.831   -36.830     0.000
   [13C]D4               0.000e+000  0.000e+000   -41.240   -41.240     0.000
   [13C]H3T              0.000e+000  0.000e+000   -42.709   -42.709     0.000
   [13C]D3T              0.000e+000  0.000e+000   -54.132   -54.131     0.000
   [13C]H2T2             0.000e+000  0.000e+000   -59.834   -59.834     0.000
   [13C]D2T2             0.000e+000  0.000e+000   -67.449   -67.449     0.000
   [13C]HT3              0.000e+000  0.000e+000   -77.311   -77.311     0.000
   [13C]DT3              0.000e+000  0.000e+000   -81.118   -81.118     0.000
   [13C]T4               0.000e+000  0.000e+000   -95.214   -95.214     0.000
[13C](4)        2.138e-005
   H[13C]O3-             2.063e-005  1.958e-005    -4.686    -4.708    -0.023
   [13C]O2               3.056e-007  3.057e-007    -6.515    -6.515     0.000
   [13C]O3-2             1.618e-007  1.312e-007    -6.791    -6.882    -0.091
   CaH[13C]O3+           7.288e-008  6.923e-008    -7.137    -7.160    -0.022
   Ca[13C]O3             6.104e-008  6.107e-008    -7.214    -7.214     0.000
   H[13C][18O]O2-        4.137e-008  3.925e-008    -7.383    -7.406    -0.023
   H[13C]O2[18O]-        4.137e-008  3.925e-008    -7.383    -7.406    -0.023
   H[13C]O[18O]O-        4.137e-008  3.925e-008    -7.383    -7.406    -0.023
   NaH[13C]O3            1.275e-008  1.275e-008    -7.895    -7.894     0.000
   D[13C]O3-             3.213e-009  3.049e-009    -8.493    -8.516    -0.023
   Na[13C]O3-            2.982e-009  2.830e-009    -8.525    -8.548    -0.023
   [13C]O[18O]           1.277e-009  1.278e-009    -8.894    -8.894     0.000
   [13C]O2[18O]-2        9.734e-010  7.892e-010    -9.012    -9.103    -0.091
   Ca[13C]O2[18O]        3.672e-010  3.674e-010    -9.435    -9.435     0.000
   CaH[13C]O[18O]O+      1.461e-010  1.388e-010    -9.835    -9.858    -0.022
   CaH[13C][18O]O2+      1.461e-010  1.388e-010    -9.835    -9.858    -0.022
   CaH[13C]O2[18O]+      1.461e-010  1.388e-010    -9.835    -9.858    -0.022
   H[13C][18O]O[18O]-    8.295e-011  7.871e-011   -10.081   -10.104    -0.023
   H[13C][18O]2O-        8.295e-011  7.871e-011   -10.081   -10.104    -0.023
   H[13C]O[18O]2-        8.295e-011  7.871e-011   -10.081   -10.104    -0.023
   NaH[13C]O2[18O]       2.556e-011  2.557e-011   -10.592   -10.592     0.000
   NaH[13C]O[18O]O       2.556e-011  2.557e-011   -10.592   -10.592     0.000
   NaH[13C][18O]O2       2.556e-011  2.557e-011   -10.592   -10.592     0.000
   Na[13C]O2[18O]-       1.794e-011  1.702e-011   -10.746   -10.769    -0.023
   CaD[13C]O3+           1.135e-011  1.078e-011   -10.945   -10.967    -0.022
   D[13C]O2[18O]-        6.443e-012  6.114e-012   -11.191   -11.214    -0.023
   D[13C][18O]O2-        6.443e-012  6.114e-012   -11.191   -11.214    -0.023
   D[13C]O[18O]O-        6.443e-012  6.114e-012   -11.191   -11.214    -0.023
   NaD[13C]O3            1.985e-012  1.986e-012   -11.702   -11.702     0.000
   [13C]O[18O]2-2        1.952e-012  1.582e-012   -11.710   -11.801    -0.091
   [13C][18O]2           1.334e-012  1.335e-012   -11.875   -11.875     0.000
   Ca[13C]O[18O]2        7.363e-013  7.367e-013   -12.133   -12.133     0.000
   CaH[13C]O[18O]2+      2.931e-013  2.784e-013   -12.533   -12.555    -0.022
   CaH[13C][18O]2O+      2.931e-013  2.784e-013   -12.533   -12.555    -0.022
   CaH[13C][18O]O[18O]+  2.931e-013  2.784e-013   -12.533   -12.555    -0.022
   H[13C][18O]3-         1.663e-013  1.578e-013   -12.779   -12.802    -0.023
   NaH[13C][18O]O[18O]   5.125e-014  5.127e-014   -13.290   -13.290     0.000
   NaH[13C]O[18O]2       5.125e-014  5.127e-014   -13.290   -13.290     0.000
   NaH[13C][18O]2O       5.125e-014  5.127e-014   -13.290   -13.290     0.000
   Na[13C]O[18O]2-       3.597e-014  3.413e-014   -13.444   -13.467    -0.023
   CaD[13C][18O]O2+      2.276e-014  2.162e-014   -13.643   -13.665    -0.022
   CaD[13C]O2[18O]+      2.276e-014  2.162e-014   -13.643   -13.665    -0.022
   CaD[13C]O[18O]O+      2.276e-014  2.162e-014   -13.643   -13.665    -0.022
   D[13C]O[18O]2-        1.292e-014  1.226e-014   -13.889   -13.912    -0.023
   D[13C][18O]O[18O]-    1.292e-014  1.226e-014   -13.889   -13.912    -0.023
   D[13C][18O]2O-        1.292e-014  1.226e-014   -13.889   -13.912    -0.023
   NaD[13C]O[18O]O       3.981e-015  3.983e-015   -14.400   -14.400     0.000
   NaD[13C][18O]O2       3.981e-015  3.983e-015   -14.400   -14.400     0.000
   NaD[13C]O2[18O]       3.981e-015  3.983e-015   -14.400   -14.400     0.000
   [13C][18O]3-2         1.305e-015  1.058e-015   -14.884   -14.976    -0.091
   CaH[13C][18O]3+       5.876e-016  5.582e-016   -15.231   -15.253    -0.022
   Ca[13C][18O]3         4.922e-016  4.924e-016   -15.308   -15.308     0.000
   NaH[13C][18O]3        1.028e-016  1.028e-016   -15.988   -15.988     0.000
   CaD[13C][18O]2O+      4.565e-017  4.336e-017   -16.341   -16.363    -0.022
   CaD[13C][18O]O[18O]+  4.565e-017  4.336e-017   -16.341   -16.363    -0.022
   CaD[13C]O[18O]2+      4.565e-017  4.336e-017   -16.341   -16.363    -0.022
   D[13C][18O]3-         2.591e-017  2.458e-017   -16.587   -16.609    -0.023
   Na[13C][18O]3-        2.404e-017  2.282e-017   -16.619   -16.642    -0.023
   NaD[13C][18O]2O       7.982e-018  7.986e-018   -17.098   -17.098     0.000
   NaD[13C]O[18O]2       7.982e-018  7.986e-018   -17.098   -17.098     0.000
   NaD[13C][18O]O[18O]   7.982e-018  7.986e-018   -17.098   -17.098     0.000
   CaD[13C][18O]3+       9.153e-020  8.694e-020   -19.038   -19.061    -0.022
   NaD[13C][18O]3        1.601e-020  1.601e-020   -19.796   -19.795     0.000
   T[13C]O3-             1.032e-022  9.789e-023   -21.986   -22.009    -0.023
   CaT[13C]O3+           3.645e-025  3.462e-025   -24.438   -24.461    -0.022
   T[13C]O2[18O]-        2.069e-025  1.963e-025   -24.684   -24.707    -0.023
   T[13C][18O]O2-        2.069e-025  1.963e-025   -24.684   -24.707    -0.023
   T[13C]O[18O]O-        2.069e-025  1.963e-025   -24.684   -24.707    -0.023
   NaT[13C]O3            6.373e-026  6.377e-026   -25.196   -25.195     0.000
   CaT[13C]O2[18O]+      7.308e-028  6.942e-028   -27.136   -27.159    -0.022
   CaT[13C][18O]O2+      7.308e-028  6.942e-028   -27.136   -27.159    -0.022
   CaT[13C]O[18O]O+      7.308e-028  6.942e-028   -27.136   -27.159    -0.022
   T[13C]O[18O]2-        4.148e-028  3.936e-028   -27.382   -27.405    -0.023
   T[13C][18O]2O-        4.148e-028  3.936e-028   -27.382   -27.405    -0.023
   T[13C][18O]O[18O]-    4.148e-028  3.936e-028   -27.382   -27.405    -0.023
   NaT[13C]O2[18O]       1.278e-028  1.279e-028   -27.893   -27.893     0.000
   NaT[13C]O[18O]O       1.278e-028  1.279e-028   -27.893   -27.893     0.000
   NaT[13C][18O]O2       1.278e-028  1.279e-028   -27.893   -27.893     0.000
   CaT[13C][18O]2O+      1.465e-030  1.392e-030   -29.834   -29.856    -0.022
   CaT[13C][18O]O[18O]+  1.465e-030  1.392e-030   -29.834   -29.856    -0.022
   CaT[13C]O[18O]2+      1.465e-030  1.392e-030   -29.834   -29.856    -0.022
   T[13C][18O]3-         8.317e-031  7.892e-031   -30.080   -30.103    -0.023
   NaT[13C][18O]2O       2.563e-031  2.564e-031   -30.591   -30.591     0.000
   NaT[13C]O[18O]2       2.563e-031  2.564e-031   -30.591   -30.591     0.000
   NaT[13C][18O]O[18O]   2.563e-031  2.564e-031   -30.591   -30.591     0.000
   CaT[13C][18O]3+       2.939e-033  2.791e-033   -32.532   -32.554    -0.022
   NaT[13C][18O]3        5.139e-034  5.141e-034   -33.289   -33.289     0.000
[14C](-4)       1.031e-036
   [14C]H4               1.030e-036  1.031e-036   -35.987   -35.987     0.000
   [14C]H3D              6.419e-040  6.423e-040   -39.193   -39.192     0.000
   [14C]H2D2             0.000e+000  0.000e+000   -42.824   -42.824     0.000
   [14C]HD3              0.000e+000  0.000e+000   -46.808   -46.807     0.000
   [14C]D4               0.000e+000  0.000e+000   -51.217   -51.217     0.000
   [14C]H3T              0.000e+000  0.000e+000   -52.686   -52.686     0.000
   [14C]D3T              0.000e+000  0.000e+000   -64.109   -64.108     0.000
   [14C]H2T2             0.000e+000  0.000e+000   -69.811   -69.811     0.000
   [14C]D2T2             0.000e+000  0.000e+000   -77.426   -77.426     0.000
   [14C]HT3              0.000e+000  0.000e+000   -87.288   -87.288     0.000
   [14C]DT3              0.000e+000  0.000e+000   -91.095   -91.095     0.000
   [14C]T4               0.000e+000  0.000e+000  -105.191  -105.191     0.000
[14C](4)        2.274e-015
   H[14C]O3-             2.194e-015  2.082e-015   -14.659   -14.681    -0.023
   [14C]O2               3.222e-017  3.224e-017   -16.492   -16.492     0.000
   [14C]O3-2             1.719e-017  1.394e-017   -16.765   -16.856    -0.091
   CaH[14C]O3+           7.753e-018  7.364e-018   -17.111   -17.133    -0.022
   Ca[14C]O3             6.484e-018  6.487e-018   -17.188   -17.188     0.000
   H[14C]O2[18O]-        4.400e-018  4.175e-018   -17.357   -17.379    -0.023
   H[14C]O[18O]O-        4.400e-018  4.175e-018   -17.357   -17.379    -0.023
   H[14C][18O]O2-        4.400e-018  4.175e-018   -17.357   -17.379    -0.023
   NaH[14C]O3            1.356e-018  1.356e-018   -17.868   -17.868     0.000
   D[14C]O3-             3.418e-019  3.243e-019   -18.466   -18.489    -0.023
   Na[14C]O3-            3.168e-019  3.006e-019   -18.499   -18.522    -0.023
   [14C]O[18O]           1.347e-019  1.347e-019   -18.871   -18.870     0.000
   [14C]O2[18O]-2        1.034e-019  8.383e-020   -18.985   -19.077    -0.091
   Ca[14C]O2[18O]        3.901e-020  3.903e-020   -19.409   -19.409     0.000
   CaH[14C]O[18O]O+      1.555e-020  1.477e-020   -19.808   -19.831    -0.022
   CaH[14C][18O]O2+      1.555e-020  1.477e-020   -19.808   -19.831    -0.022
   CaH[14C]O2[18O]+      1.555e-020  1.477e-020   -19.808   -19.831    -0.022
   H[14C][18O]O[18O]-    8.824e-021  8.373e-021   -20.054   -20.077    -0.023
   H[14C]O[18O]2-        8.824e-021  8.373e-021   -20.054   -20.077    -0.023
   H[14C][18O]2O-        8.824e-021  8.373e-021   -20.054   -20.077    -0.023
   NaH[14C][18O]O2       2.719e-021  2.720e-021   -20.566   -20.565     0.000
   NaH[14C]O[18O]O       2.719e-021  2.720e-021   -20.566   -20.565     0.000
   NaH[14C]O2[18O]       2.719e-021  2.720e-021   -20.566   -20.565     0.000
   Na[14C]O2[18O]-       1.906e-021  1.808e-021   -20.720   -20.743    -0.023
   CaD[14C]O3+           1.208e-021  1.147e-021   -20.918   -20.940    -0.022
   D[14C]O[18O]O-        6.854e-022  6.504e-022   -21.164   -21.187    -0.023
   D[14C]O2[18O]-        6.854e-022  6.504e-022   -21.164   -21.187    -0.023
   D[14C][18O]O2-        6.854e-022  6.504e-022   -21.164   -21.187    -0.023
   NaD[14C]O3            2.112e-022  2.113e-022   -21.675   -21.675     0.000
   [14C]O[18O]2-2        2.073e-022  1.681e-022   -21.683   -21.774    -0.091
   [14C][18O]2           1.407e-022  1.408e-022   -21.852   -21.851     0.000
   Ca[14C]O[18O]2        7.821e-023  7.825e-023   -22.107   -22.106     0.000
   CaH[14C]O[18O]2+      3.117e-023  2.961e-023   -22.506   -22.529    -0.022
   CaH[14C][18O]2O+      3.117e-023  2.961e-023   -22.506   -22.529    -0.022
   CaH[14C][18O]O[18O]+  3.117e-023  2.961e-023   -22.506   -22.529    -0.022
   H[14C][18O]3-         1.769e-023  1.679e-023   -22.752   -22.775    -0.023
   NaH[14C][18O]2O       5.451e-024  5.454e-024   -23.263   -23.263     0.000
   NaH[14C][18O]O[18O]   5.451e-024  5.454e-024   -23.263   -23.263     0.000
   NaH[14C]O[18O]2       5.451e-024  5.454e-024   -23.263   -23.263     0.000
   Na[14C]O[18O]2-       3.821e-024  3.626e-024   -23.418   -23.441    -0.023
   CaD[14C]O[18O]O+      2.422e-024  2.300e-024   -23.616   -23.638    -0.022
   CaD[14C]O2[18O]+      2.422e-024  2.300e-024   -23.616   -23.638    -0.022
   CaD[14C][18O]O2+      2.422e-024  2.300e-024   -23.616   -23.638    -0.022
   D[14C][18O]O[18O]-    1.374e-024  1.304e-024   -23.862   -23.885    -0.023
   D[14C][18O]2O-        1.374e-024  1.304e-024   -23.862   -23.885    -0.023
   D[14C]O[18O]2-        1.374e-024  1.304e-024   -23.862   -23.885    -0.023
   NaD[14C][18O]O2       4.235e-025  4.237e-025   -24.373   -24.373     0.000
   NaD[14C]O[18O]O       4.235e-025  4.237e-025   -24.373   -24.373     0.000
   NaD[14C]O2[18O]       4.235e-025  4.237e-025   -24.373   -24.373     0.000
   [14C][18O]3-2         1.386e-025  1.124e-025   -24.858   -24.949    -0.091
   CaH[14C][18O]3+       6.251e-026  5.937e-026   -25.204   -25.226    -0.022
   Ca[14C][18O]3         5.228e-026  5.231e-026   -25.282   -25.281     0.000
   NaH[14C][18O]3        1.093e-026  1.094e-026   -25.961   -25.961     0.000
   CaD[14C]O[18O]2+      4.856e-027  4.612e-027   -26.314   -26.336    -0.022
   CaD[14C][18O]2O+      4.856e-027  4.612e-027   -26.314   -26.336    -0.022
   CaD[14C][18O]O[18O]+  4.856e-027  4.612e-027   -26.314   -26.336    -0.022
   D[14C][18O]3-         2.756e-027  2.615e-027   -26.560   -26.583    -0.023
   Na[14C][18O]3-        2.554e-027  2.424e-027   -26.593   -26.616    -0.023
   NaD[14C][18O]O[18O]   8.491e-028  8.495e-028   -27.071   -27.071     0.000
   NaD[14C]O[18O]2       8.491e-028  8.495e-028   -27.071   -27.071     0.000
   NaD[14C][18O]2O       8.491e-028  8.495e-028   -27.071   -27.071     0.000
   CaD[14C][18O]3+       9.737e-030  9.248e-030   -29.012   -29.034    -0.022
   NaD[14C][18O]3        1.703e-030  1.704e-030   -29.769   -29.769     0.000
   T[14C]O3-             1.097e-032  1.041e-032   -31.960   -31.982    -0.023
   CaT[14C]O3+           3.877e-035  3.683e-035   -34.411   -34.434    -0.022
   T[14C][18O]O2-        2.200e-035  2.088e-035   -34.657   -34.680    -0.023
   T[14C]O[18O]O-        2.200e-035  2.088e-035   -34.657   -34.680    -0.023
   T[14C]O2[18O]-        2.200e-035  2.088e-035   -34.657   -34.680    -0.023
   NaT[14C]O3            6.780e-036  6.783e-036   -35.169   -35.169     0.000
   CaT[14C]O[18O]O+      7.774e-038  7.384e-038   -37.109   -37.132    -0.022
   CaT[14C][18O]O2+      7.774e-038  7.384e-038   -37.109   -37.132    -0.022
   CaT[14C]O2[18O]+      7.774e-038  7.384e-038   -37.109   -37.132    -0.022
   T[14C][18O]2O-        4.412e-038  4.187e-038   -37.355   -37.378    -0.023
   T[14C]O[18O]2-        4.412e-038  4.187e-038   -37.355   -37.378    -0.023
   T[14C][18O]O[18O]-    4.412e-038  4.187e-038   -37.355   -37.378    -0.023
   NaT[14C][18O]O2       1.359e-038  1.360e-038   -37.867   -37.866     0.000
   NaT[14C]O[18O]O       1.359e-038  1.360e-038   -37.867   -37.866     0.000
   NaT[14C]O2[18O]       1.359e-038  1.360e-038   -37.867   -37.866     0.000
   CaT[14C][18O]2O+      1.559e-040  1.481e-040   -39.807   -39.830    -0.022
   CaT[14C]O[18O]2+      1.559e-040  1.481e-040   -39.807   -39.830    -0.022
   CaT[14C][18O]O[18O]+  1.559e-040  1.481e-040   -39.807   -39.830    -0.022
   T[14C][18O]3-         0.000e+000  0.000e+000   -40.053   -40.076    -0.023
   NaT[14C]O[18O]2       0.000e+000  0.000e+000   -40.564   -40.564     0.000
   NaT[14C][18O]2O       0.000e+000  0.000e+000   -40.564   -40.564     0.000
   NaT[14C][18O]O[18O]   0.000e+000  0.000e+000   -40.564   -40.564     0.000
   CaT[14C][18O]3+       0.000e+000  0.000e+000   -42.505   -42.527    -0.022
   NaT[14C][18O]3        0.000e+000  0.000e+000   -43.262   -43.262     0.000
[18O](-2)       1.114e-001
   H2[18O]               1.114e-001  2.001e-003    -0.953    -2.699    -1.746
   HD[18O]               3.470e-005  6.233e-007    -4.460    -6.205    -1.746
   HC[18O]O2-            3.699e-006  3.510e-006    -5.432    -5.455    -0.023
   HCO2[18O]-            3.699e-006  3.510e-006    -5.432    -5.455    -0.023
   HCO[18O]O-            3.699e-006  3.510e-006    -5.432    -5.455    -0.023
   CO[18O]               1.152e-007  1.152e-007    -6.939    -6.938     0.000
   CO2[18O]-2            8.717e-008  7.067e-008    -7.060    -7.151    -0.091
   H[13C][18O]O2-        4.137e-008  3.925e-008    -7.383    -7.406    -0.023
   H[13C]O2[18O]-        4.137e-008  3.925e-008    -7.383    -7.406    -0.023
   H[13C]O[18O]O-        4.137e-008  3.925e-008    -7.383    -7.406    -0.023
   CaCO2[18O]            3.288e-008  3.290e-008    -7.483    -7.483     0.000
   CaHCO2[18O]+          1.307e-008  1.241e-008    -7.884    -7.906    -0.022
   CaHCO[18O]O+          1.307e-008  1.241e-008    -7.884    -7.906    -0.022
   CaHC[18O]O2+          1.307e-008  1.241e-008    -7.884    -7.906    -0.022
   HC[18O]O[18O]-        7.417e-009  7.038e-009    -8.130    -8.153    -0.023
   HCO[18O]2-            7.417e-009  7.038e-009    -8.130    -8.153    -0.023
   HC[18O]2O-            7.417e-009  7.038e-009    -8.130    -8.153    -0.023
   [18O]H-               2.909e-009  2.759e-009    -8.536    -8.559    -0.023
   D2[18O]               2.703e-009  4.854e-011    -8.568   -10.314    -1.746
   NaHCO2[18O]           2.285e-009  2.287e-009    -8.641    -8.641     0.000
   NaHCO[18O]O           2.285e-009  2.287e-009    -8.641    -8.641     0.000
   NaHC[18O]O2           2.285e-009  2.287e-009    -8.641    -8.641     0.000
   NaCO2[18O]-           1.607e-009  1.524e-009    -8.794    -8.817    -0.023
   [13C]O[18O]           1.277e-009  1.278e-009    -8.894    -8.894     0.000
   [13C]O2[18O]-2        9.734e-010  7.892e-010    -9.012    -9.103    -0.091
   DCO2[18O]-            5.762e-010  5.467e-010    -9.239    -9.262    -0.023
   DC[18O]O2-            5.762e-010  5.467e-010    -9.239    -9.262    -0.023
   DCO[18O]O-            5.762e-010  5.467e-010    -9.239    -9.262    -0.023
   Ca[13C]O2[18O]        3.672e-010  3.674e-010    -9.435    -9.435     0.000
   CO[18O]2-2            1.748e-010  1.417e-010    -9.757    -9.849    -0.091
   CaH[13C][18O]O2+      1.461e-010  1.388e-010    -9.835    -9.858    -0.022
   CaH[13C]O[18O]O+      1.461e-010  1.388e-010    -9.835    -9.858    -0.022
   CaH[13C]O2[18O]+      1.461e-010  1.388e-010    -9.835    -9.858    -0.022
   C[18O]2               1.203e-010  1.204e-010    -9.920    -9.919     0.000
   H[13C][18O]2O-        8.295e-011  7.871e-011   -10.081   -10.104    -0.023
   H[13C][18O]O[18O]-    8.295e-011  7.871e-011   -10.081   -10.104    -0.023
   H[13C]O[18O]2-        8.295e-011  7.871e-011   -10.081   -10.104    -0.023
   CaCO[18O]2            6.594e-011  6.597e-011   -10.181   -10.181     0.000
   CaHC[18O]O[18O]+      2.621e-011  2.489e-011   -10.582   -10.604    -0.022
   CaHCO[18O]2+          2.621e-011  2.489e-011   -10.582   -10.604    -0.022
   CaHC[18O]2O+          2.621e-011  2.489e-011   -10.582   -10.604    -0.022
   NaH[13C]O[18O]O       2.556e-011  2.557e-011   -10.592   -10.592     0.000
   NaH[13C][18O]O2       2.556e-011  2.557e-011   -10.592   -10.592     0.000
   NaH[13C]O2[18O]       2.556e-011  2.557e-011   -10.592   -10.592     0.000
   Na[13C]O2[18O]-       1.794e-011  1.702e-011   -10.746   -10.769    -0.023
   H3[18O]+              1.502e-011  1.431e-011   -10.823   -10.844    -0.021
   HC[18O]3-             1.487e-011  1.411e-011   -10.828   -10.850    -0.023
   D[13C][18O]O2-        6.443e-012  6.114e-012   -11.191   -11.214    -0.023
   D[13C]O[18O]O-        6.443e-012  6.114e-012   -11.191   -11.214    -0.023
   D[13C]O2[18O]-        6.443e-012  6.114e-012   -11.191   -11.214    -0.023
   NaHC[18O]2O           4.583e-012  4.585e-012   -11.339   -11.339     0.000
   NaHCO[18O]2           4.583e-012  4.585e-012   -11.339   -11.339     0.000
   NaHC[18O]O[18O]       4.583e-012  4.585e-012   -11.339   -11.339     0.000
   NaCO[18O]2-           3.221e-012  3.057e-012   -11.492   -11.515    -0.023
   CaDCO2[18O]+          2.036e-012  1.934e-012   -11.691   -11.714    -0.022
   CaDCO[18O]O+          2.036e-012  1.934e-012   -11.691   -11.714    -0.022
   CaDC[18O]O2+          2.036e-012  1.934e-012   -11.691   -11.714    -0.022
   [13C]O[18O]2-2        1.952e-012  1.582e-012   -11.710   -11.801    -0.091
   [13C][18O]2           1.334e-012  1.335e-012   -11.875   -11.875     0.000
   DCO[18O]2-            1.155e-012  1.096e-012   -11.937   -11.960    -0.023
   DC[18O]O[18O]-        1.155e-012  1.096e-012   -11.937   -11.960    -0.023
   DC[18O]2O-            1.155e-012  1.096e-012   -11.937   -11.960    -0.023
   Ca[13C]O[18O]2        7.363e-013  7.367e-013   -12.133   -12.133     0.000
   NaDC[18O]O2           3.560e-013  3.562e-013   -12.449   -12.448     0.000
   NaDCO[18O]O           3.560e-013  3.562e-013   -12.449   -12.448     0.000
   NaDCO2[18O]           3.560e-013  3.562e-013   -12.449   -12.448     0.000
   CaH[13C][18O]O[18O]+  2.931e-013  2.784e-013   -12.533   -12.555    -0.022
   CaH[13C]O[18O]2+      2.931e-013  2.784e-013   -12.533   -12.555    -0.022
   CaH[13C][18O]2O+      2.931e-013  2.784e-013   -12.533   -12.555    -0.022
   H[13C][18O]3-         1.663e-013  1.578e-013   -12.779   -12.802    -0.023
   C[18O]3-2             1.168e-013  9.472e-014   -12.932   -13.024    -0.091
   [18O]D-               1.079e-013  1.023e-013   -12.967   -12.990    -0.023
   CaHC[18O]3+           5.255e-014  4.991e-014   -13.279   -13.302    -0.022
   NaH[13C]O[18O]2       5.125e-014  5.127e-014   -13.290   -13.290     0.000
   NaH[13C][18O]2O       5.125e-014  5.127e-014   -13.290   -13.290     0.000
   NaH[13C][18O]O[18O]   5.125e-014  5.127e-014   -13.290   -13.290     0.000
   CaC[18O]3             4.407e-014  4.410e-014   -13.356   -13.356     0.000
   Na[13C]O[18O]2-       3.597e-014  3.413e-014   -13.444   -13.467    -0.023
   CaD[13C]O[18O]O+      2.276e-014  2.162e-014   -13.643   -13.665    -0.022
   CaD[13C]O2[18O]+      2.276e-014  2.162e-014   -13.643   -13.665    -0.022
   CaD[13C][18O]O2+      2.276e-014  2.162e-014   -13.643   -13.665    -0.022
   D[13C][18O]2O-        1.292e-014  1.226e-014   -13.889   -13.912    -0.023
   D[13C]O[18O]2-        1.292e-014  1.226e-014   -13.889   -13.912    -0.023
   D[13C][18O]O[18O]-    1.292e-014  1.226e-014   -13.889   -13.912    -0.023
   NaHC[18O]3            9.189e-015  9.194e-015   -14.037   -14.037     0.000
   H2D[18O]+             7.313e-015  6.964e-015   -14.136   -14.157    -0.021
   CaDCO[18O]2+          4.082e-015  3.877e-015   -14.389   -14.411    -0.022
   CaDC[18O]2O+          4.082e-015  3.877e-015   -14.389   -14.411    -0.022
   CaDC[18O]O[18O]+      4.082e-015  3.877e-015   -14.389   -14.411    -0.022
   NaD[13C][18O]O2       3.981e-015  3.983e-015   -14.400   -14.400     0.000
   NaD[13C]O2[18O]       3.981e-015  3.983e-015   -14.400   -14.400     0.000
   NaD[13C]O[18O]O       3.981e-015  3.983e-015   -14.400   -14.400     0.000
   DC[18O]3-             2.317e-015  2.198e-015   -14.635   -14.658    -0.023
   NaC[18O]3-            2.153e-015  2.043e-015   -14.667   -14.690    -0.023
   [13C][18O]3-2         1.305e-015  1.058e-015   -14.884   -14.976    -0.091
   NaDC[18O]2O           7.138e-016  7.142e-016   -15.146   -15.146     0.000
   NaDCO[18O]2           7.138e-016  7.142e-016   -15.146   -15.146     0.000
   NaDC[18O]O[18O]       7.138e-016  7.142e-016   -15.146   -15.146     0.000
   CaH[13C][18O]3+       5.876e-016  5.582e-016   -15.231   -15.253    -0.022
   Ca[13C][18O]3         4.922e-016  4.924e-016   -15.308   -15.308     0.000
   NaH[13C][18O]3        1.028e-016  1.028e-016   -15.988   -15.988     0.000
   CaD[13C]O[18O]2+      4.565e-017  4.336e-017   -16.341   -16.363    -0.022
   CaD[13C][18O]2O+      4.565e-017  4.336e-017   -16.341   -16.363    -0.022
   CaD[13C][18O]O[18O]+  4.565e-017  4.336e-017   -16.341   -16.363    -0.022
   D[13C][18O]3-         2.591e-017  2.458e-017   -16.587   -16.609    -0.023
   Na[13C][18O]3-        2.404e-017  2.282e-017   -16.619   -16.642    -0.023
   CaDC[18O]3+           8.185e-018  7.774e-018   -17.087   -17.109    -0.022
   NaD[13C]O[18O]2       7.982e-018  7.986e-018   -17.098   -17.098     0.000
   NaD[13C][18O]2O       7.982e-018  7.986e-018   -17.098   -17.098     0.000
   NaD[13C][18O]O[18O]   7.982e-018  7.986e-018   -17.098   -17.098     0.000
   H[14C][18O]O2-        4.400e-018  4.175e-018   -17.357   -17.379    -0.023
   H[14C]O2[18O]-        4.400e-018  4.175e-018   -17.357   -17.379    -0.023
   H[14C]O[18O]O-        4.400e-018  4.175e-018   -17.357   -17.379    -0.023
   NaDC[18O]3            1.431e-018  1.432e-018   -17.844   -17.844     0.000
   HD2[18O]+             1.187e-018  1.130e-018   -17.926   -17.947    -0.021
   HT[18O]               1.114e-018  2.001e-020   -17.953   -19.699    -1.746
   [14C]O[18O]           1.347e-019  1.347e-019   -18.871   -18.870     0.000
   [14C]O2[18O]-2        1.034e-019  8.383e-020   -18.985   -19.077    -0.091
   CaD[13C][18O]3+       9.153e-020  8.694e-020   -19.038   -19.061    -0.022
   Ca[14C]O2[18O]        3.901e-020  3.903e-020   -19.409   -19.409     0.000
   NaD[13C][18O]3        1.601e-020  1.601e-020   -19.796   -19.795     0.000
   CaH[14C]O2[18O]+      1.555e-020  1.477e-020   -19.808   -19.831    -0.022
   CaH[14C][18O]O2+      1.555e-020  1.477e-020   -19.808   -19.831    -0.022
   CaH[14C]O[18O]O+      1.555e-020  1.477e-020   -19.808   -19.831    -0.022
   H[14C][18O]O[18O]-    8.824e-021  8.373e-021   -20.054   -20.077    -0.023
   H[14C]O[18O]2-        8.824e-021  8.373e-021   -20.054   -20.077    -0.023
   H[14C][18O]2O-        8.824e-021  8.373e-021   -20.054   -20.077    -0.023
   NaH[14C][18O]O2       2.719e-021  2.720e-021   -20.566   -20.565     0.000
   NaH[14C]O2[18O]       2.719e-021  2.720e-021   -20.566   -20.565     0.000
   NaH[14C]O[18O]O       2.719e-021  2.720e-021   -20.566   -20.565     0.000
   Na[14C]O2[18O]-       1.906e-021  1.808e-021   -20.720   -20.743    -0.023
   D[14C]O[18O]O-        6.854e-022  6.504e-022   -21.164   -21.187    -0.023
   D[14C]O2[18O]-        6.854e-022  6.504e-022   -21.164   -21.187    -0.023
   D[14C][18O]O2-        6.854e-022  6.504e-022   -21.164   -21.187    -0.023
   [14C]O[18O]2-2        2.073e-022  1.681e-022   -21.683   -21.774    -0.091
   DT[18O]               1.735e-022  3.117e-024   -21.761   -23.506    -1.746
   [14C][18O]2           1.407e-022  1.408e-022   -21.852   -21.851     0.000
   Ca[14C]O[18O]2        7.821e-023  7.825e-023   -22.107   -22.106     0.000
   D3[18O]+              6.417e-023  6.111e-023   -22.193   -22.214    -0.021
   CaH[14C][18O]2O+      3.117e-023  2.961e-023   -22.506   -22.529    -0.022
   CaH[14C][18O]O[18O]+  3.117e-023  2.961e-023   -22.506   -22.529    -0.022
   CaH[14C]O[18O]2+      3.117e-023  2.961e-023   -22.506   -22.529    -0.022
   TC[18O]O2-            1.850e-023  1.755e-023   -22.733   -22.756    -0.023
   TCO2[18O]-            1.850e-023  1.755e-023   -22.733   -22.756    -0.023
   TCO[18O]O-            1.850e-023  1.755e-023   -22.733   -22.756    -0.023
   H[14C][18O]3-         1.769e-023  1.679e-023   -22.752   -22.775    -0.023
   NaH[14C][18O]2O       5.451e-024  5.454e-024   -23.263   -23.263     0.000
   NaH[14C][18O]O[18O]   5.451e-024  5.454e-024   -23.263   -23.263     0.000
   NaH[14C]O[18O]2       5.451e-024  5.454e-024   -23.263   -23.263     0.000
   Na[14C]O[18O]2-       3.821e-024  3.626e-024   -23.418   -23.441    -0.023
   CaD[14C]O[18O]O+      2.422e-024  2.300e-024   -23.616   -23.638    -0.022
   CaD[14C]O2[18O]+      2.422e-024  2.300e-024   -23.616   -23.638    -0.022
   CaD[14C][18O]O2+      2.422e-024  2.300e-024   -23.616   -23.638    -0.022
   D[14C][18O]O[18O]-    1.374e-024  1.304e-024   -23.862   -23.885    -0.023
   D[14C]O[18O]2-        1.374e-024  1.304e-024   -23.862   -23.885    -0.023
   D[14C][18O]2O-        1.374e-024  1.304e-024   -23.862   -23.885    -0.023
   NaD[14C][18O]O2       4.235e-025  4.237e-025   -24.373   -24.373     0.000
   NaD[14C]O2[18O]       4.235e-025  4.237e-025   -24.373   -24.373     0.000
   NaD[14C]O[18O]O       4.235e-025  4.237e-025   -24.373   -24.373     0.000
   T[13C]O[18O]O-        2.069e-025  1.963e-025   -24.684   -24.707    -0.023
   T[13C][18O]O2-        2.069e-025  1.963e-025   -24.684   -24.707    -0.023
   T[13C]O2[18O]-        2.069e-025  1.963e-025   -24.684   -24.707    -0.023
   [14C][18O]3-2         1.386e-025  1.124e-025   -24.858   -24.949    -0.091
   Ca[18O]H+             1.337e-025  1.269e-025   -24.874   -24.897    -0.023
   CaTCO2[18O]+          6.535e-026  6.208e-026   -25.185   -25.207    -0.022
   CaTC[18O]O2+          6.535e-026  6.208e-026   -25.185   -25.207    -0.022
   CaTCO[18O]O+          6.535e-026  6.208e-026   -25.185   -25.207    -0.022
   CaH[14C][18O]3+       6.251e-026  5.937e-026   -25.204   -25.226    -0.022
   Ca[14C][18O]3         5.228e-026  5.231e-026   -25.282   -25.281     0.000
   TC[18O]2O-            3.709e-026  3.520e-026   -25.431   -25.453    -0.023
   TC[18O]O[18O]-        3.709e-026  3.520e-026   -25.431   -25.453    -0.023
   TCO[18O]2-            3.709e-026  3.520e-026   -25.431   -25.453    -0.023
   Na[18O]H              2.111e-026  2.112e-026   -25.676   -25.675     0.000
   NaTCO[18O]O           1.143e-026  1.143e-026   -25.942   -25.942     0.000
   NaTCO2[18O]           1.143e-026  1.143e-026   -25.942   -25.942     0.000
   NaTC[18O]O2           1.143e-026  1.143e-026   -25.942   -25.942     0.000
   NaH[14C][18O]3        1.093e-026  1.094e-026   -25.961   -25.961     0.000
   CaD[14C][18O]O[18O]+  4.856e-027  4.612e-027   -26.314   -26.336    -0.022
   CaD[14C][18O]2O+      4.856e-027  4.612e-027   -26.314   -26.336    -0.022
   CaD[14C]O[18O]2+      4.856e-027  4.612e-027   -26.314   -26.336    -0.022
   D[14C][18O]3-         2.756e-027  2.615e-027   -26.560   -26.583    -0.023
   Na[14C][18O]3-        2.554e-027  2.424e-027   -26.593   -26.616    -0.023
   NaD[14C][18O]O[18O]   8.491e-028  8.495e-028   -27.071   -27.071     0.000
   NaD[14C]O[18O]2       8.491e-028  8.495e-028   -27.071   -27.071     0.000
   NaD[14C][18O]2O       8.491e-028  8.495e-028   -27.071   -27.071     0.000
   [18O]T-               8.249e-028  7.824e-028   -27.084   -27.107    -0.023
   CaT[13C]O2[18O]+      7.308e-028  6.942e-028   -27.136   -27.159    -0.022
   CaT[13C][18O]O2+      7.308e-028  6.942e-028   -27.136   -27.159    -0.022
   CaT[13C]O[18O]O+      7.308e-028  6.942e-028   -27.136   -27.159    -0.022
   T[13C][18O]2O-        4.148e-028  3.936e-028   -27.382   -27.405    -0.023
   T[13C][18O]O[18O]-    4.148e-028  3.936e-028   -27.382   -27.405    -0.023
   T[13C]O[18O]2-        4.148e-028  3.936e-028   -27.382   -27.405    -0.023
   H2T[18O]+             2.446e-028  2.329e-028   -27.612   -27.633    -0.021
   CaTCO[18O]2+          1.310e-028  1.245e-028   -27.883   -27.905    -0.022
   CaTC[18O]O[18O]+      1.310e-028  1.245e-028   -27.883   -27.905    -0.022
   CaTC[18O]2O+          1.310e-028  1.245e-028   -27.883   -27.905    -0.022
   NaT[13C]O2[18O]       1.278e-028  1.279e-028   -27.893   -27.893     0.000
   NaT[13C][18O]O2       1.278e-028  1.279e-028   -27.893   -27.893     0.000
   NaT[13C]O[18O]O       1.278e-028  1.279e-028   -27.893   -27.893     0.000
   TC[18O]3-             7.438e-029  7.058e-029   -28.129   -28.151    -0.023
   NaTC[18O]O[18O]       2.292e-029  2.293e-029   -28.640   -28.640     0.000
   NaTCO[18O]2           2.292e-029  2.293e-029   -28.640   -28.640     0.000
   NaTC[18O]2O           2.292e-029  2.293e-029   -28.640   -28.640     0.000
   CaD[14C][18O]3+       9.737e-030  9.248e-030   -29.012   -29.034    -0.022
   Ca[18O]D+             4.960e-030  4.707e-030   -29.304   -29.327    -0.023
   NaD[14C][18O]3        1.703e-030  1.704e-030   -29.769   -29.769     0.000
   CaT[13C][18O]O[18O]+  1.465e-030  1.392e-030   -29.834   -29.856    -0.022
   CaT[13C][18O]2O+      1.465e-030  1.392e-030   -29.834   -29.856    -0.022
   CaT[13C]O[18O]2+      1.465e-030  1.392e-030   -29.834   -29.856    -0.022
   T[13C][18O]3-         8.317e-031  7.892e-031   -30.080   -30.103    -0.023
   Na[18O]D              7.829e-031  7.833e-031   -30.106   -30.106     0.000
   CaTC[18O]3+           2.628e-031  2.496e-031   -30.580   -30.603    -0.022
   NaT[13C][18O]2O       2.563e-031  2.564e-031   -30.591   -30.591     0.000
   NaT[13C][18O]O[18O]   2.563e-031  2.564e-031   -30.591   -30.591     0.000
   NaT[13C]O[18O]2       2.563e-031  2.564e-031   -30.591   -30.591     0.000
   NaTC[18O]3            4.595e-032  4.598e-032   -31.338   -31.337     0.000
   HDT[18O]+             3.968e-032  3.779e-032   -31.401   -31.423    -0.021
   CaT[13C][18O]3+       2.939e-033  2.791e-033   -32.532   -32.554    -0.022
   NaT[13C][18O]3        5.139e-034  5.141e-034   -33.289   -33.289     0.000
   T[14C]O[18O]O-        2.200e-035  2.088e-035   -34.657   -34.680    -0.023
   T[14C]O2[18O]-        2.200e-035  2.088e-035   -34.657   -34.680    -0.023
   T[14C][18O]O2-        2.200e-035  2.088e-035   -34.657   -34.680    -0.023
   D2T[18O]+             6.438e-036  6.131e-036   -35.191   -35.212    -0.021
   T2[18O]               2.786e-036  5.003e-038   -35.555   -37.301    -1.746
   CaT[14C]O[18O]O+      7.774e-038  7.384e-038   -37.109   -37.132    -0.022
   CaT[14C]O2[18O]+      7.774e-038  7.384e-038   -37.109   -37.132    -0.022
   CaT[14C][18O]O2+      7.774e-038  7.384e-038   -37.109   -37.132    -0.022
   T[14C]O[18O]2-        4.412e-038  4.187e-038   -37.355   -37.378    -0.023
   T[14C][18O]2O-        4.412e-038  4.187e-038   -37.355   -37.378    -0.023
   T[14C][18O]O[18O]-    4.412e-038  4.187e-038   -37.355   -37.378    -0.023
   NaT[14C][18O]O2       1.359e-038  1.360e-038   -37.867   -37.866     0.000
   NaT[14C]O2[18O]       1.359e-038  1.360e-038   -37.867   -37.866     0.000
   NaT[14C]O[18O]O       1.359e-038  1.360e-038   -37.867   -37.866     0.000
   CaT[14C][18O]O[18O]+  1.559e-040  1.481e-040   -39.807   -39.830    -0.022
   CaT[14C]O[18O]2+      1.559e-040  1.481e-040   -39.807   -39.830    -0.022
   CaT[14C][18O]2O+      1.559e-040  1.481e-040   -39.807   -39.830    -0.022
   T[14C][18O]3-         0.000e+000  0.000e+000   -40.053   -40.076    -0.023
   NaT[14C]O[18O]2       0.000e+000  0.000e+000   -40.564   -40.564     0.000
   NaT[14C][18O]O[18O]   0.000e+000  0.000e+000   -40.564   -40.564     0.000
   NaT[14C][18O]2O       0.000e+000  0.000e+000   -40.564   -40.564     0.000
   CaT[14C][18O]3+       0.000e+000  0.000e+000   -42.505   -42.527    -0.022
   NaT[14C][18O]3        0.000e+000  0.000e+000   -43.262   -43.262     0.000
   Ca[18O]T+             0.000e+000  0.000e+000   -43.421   -43.444    -0.023
   Na[18O]T              0.000e+000  0.000e+000   -44.223   -44.223     0.000
   HT2[18O]+             0.000e+000  0.000e+000   -44.877   -44.898    -0.021
   DT2[18O]+             0.000e+000  0.000e+000   -48.667   -48.688    -0.021
   T3[18O]+              0.000e+000  0.000e+000   -62.620   -62.641    -0.021
[18O](0)        0.000e+000
   O[18O]                0.000e+000  0.000e+000   -66.535   -66.535     0.000
   [18O]2                0.000e+000  0.000e+000   -69.534   -69.534     0.000

------------------------------Saturation indices-------------------------------

	Phase               SI log IAP  log KT

	[13C][18O]2(g)  -10.41  -11.91   -1.50  [13C][18O]2
	[13C]D2T2(g)    -64.59  -67.62   -3.04  [13C]D2T2
	[13C]D3T(g)     -51.27  -54.43   -3.16  [13C]D3T
	[13C]D4(g)      -38.38  -41.24   -2.86  [13C]D4
	[13C]DT3(g)     -78.26  -80.82   -2.56  [13C]DT3
	[13C]H2D2(g)    -29.99  -33.62   -3.64  [13C]H2D2
	[13C]H2T2(g)    -56.97  -60.01   -3.04  [13C]H2T2
	[13C]H3D(g)     -26.36  -29.82   -3.46  [13C]H3D
	[13C]H3T(g)     -39.85  -43.01   -3.16  [13C]H3T
	[13C]H4(g)      -23.15  -26.01   -2.86  [13C]H4
	[13C]HD3(g)     -33.97  -37.43   -3.46  [13C]HD3
	[13C]HT3(g)     -74.45  -77.01   -2.56  [13C]HT3
	[13C]O2(g)       -5.05   -6.51   -1.47  [13C]O2
	[13C]O[18O](g)   -7.43   -9.21   -1.79  [13C]O[18O]
	[13C]T4(g)      -92.35  -94.01   -1.66  [13C]T4
	[14C][18O]2(g)  -20.38  -21.89   -1.50  [14C][18O]2
	[14C]D2T2(g)    -74.57  -77.60   -3.04  [14C]D2T2
	[14C]D3T(g)     -61.25  -64.41   -3.16  [14C]D3T
	[14C]D4(g)      -48.36  -51.22   -2.86  [14C]D4
	[14C]DT3(g)     -88.24  -90.79   -2.56  [14C]DT3
	[14C]H2D2(g)    -39.96  -43.60   -3.64  [14C]H2D2
	[14C]H2T2(g)    -66.95  -69.99   -3.04  [14C]H2T2
	[14C]H3D(g)     -36.33  -39.79   -3.46  [14C]H3D
	[14C]H3T(g)     -49.83  -52.99   -3.16  [14C]H3T
	[14C]H4(g)      -33.13  -35.99   -2.86  [14C]H4
	[14C]HD3(g)     -43.95  -47.41   -3.46  [14C]HD3
	[14C]HT3(g)     -84.43  -86.99   -2.56  [14C]HT3
	[14C]O2(g)      -15.02  -16.49   -1.47  [14C]O2
	[14C]O[18O](g)  -17.40  -19.19   -1.79  [14C]O[18O]
	[14C]T4(g)     -102.33 -103.99   -1.66  [14C]T4
	[18O]2(g)       -67.18  -69.53   -2.36  [18O]2
	C[18O]2(g)       -8.45   -9.96   -1.50  C[18O]2
	Ca[13C][18O]3(s) -10.01   -1.86    8.16  Ca[13C][18O]3
	Ca[13C]O2[18O](s)  -4.17    3.54    7.71  Ca[13C]O2[18O]
	Ca[13C]O3(s)     -1.96    6.24    8.20  Ca[13C]O3
	Ca[13C]O[18O]2(s)  -6.85    0.84    7.69  Ca[13C]O[18O]2
	Ca[14C][18O]3(s) -19.99  -11.83    8.15  Ca[14C][18O]3
	Ca[14C]O2[18O](s) -14.14   -6.44    7.70  Ca[14C]O2[18O]
	Ca[14C]O3(s)    -11.93   -3.74    8.19  Ca[14C]O3
	Ca[14C]O[18O]2(s) -16.82   -9.13    7.69  Ca[14C]O[18O]2
	CaC[18O]3(s)     -8.06    0.10    8.16  CaC[18O]3
	CaCO2[18O](s)    -2.22    5.50    7.71  CaCO2[18O]
	CaCO[18O]2(s)    -4.90    2.80    7.70  CaCO[18O]2
	Calcite          -0.01   -8.49   -8.48  CaCO3
	CD2T2(g)        -62.63  -65.67   -3.04  CD2T2
	CD3T(g)         -49.32  -52.48   -3.16  CD3T
	CD4(g)          -36.42  -39.28   -2.86  CD4
	CDT3(g)         -76.30  -78.86   -2.56  CDT3
	CH2D2(g)        -28.03  -31.67   -3.64  CH2D2
	CH2T2(g)        -55.02  -58.05   -3.04  CH2T2
	CH3D(g)         -24.40  -27.86   -3.46  CH3D
	CH3T(g)         -37.89  -41.05   -3.16  CH3T
	CH4(g)          -21.19  -24.05   -2.86  CH4
	CHD3(g)         -32.02  -35.48   -3.46  CHD3
	CHT3(g)         -72.50  -75.05   -2.56  CHT3
	CO2(g)           -3.09   -4.56   -1.47  CO2
	CO[18O](g)       -5.47   -7.26   -1.79  CO[18O]
	CT4(g)          -90.40  -92.05   -1.66  CT4
	D2(g)           -18.59  -21.74   -3.15  D2
	D2[18O](g)      -11.89  -10.31    1.58  D2[18O]
	D2O(g)           -9.19   -7.62    1.58  D2O
	DT(g)           -31.78  -34.93   -3.15  DT
	DT[18O](g)      -25.12  -23.51    1.61  DT[18O]
	DTO(g)          -22.42  -20.81    1.61  DTO
	H2(g)           -10.97  -14.12   -3.15  H2
	H2[18O](g)       -4.21   -2.70    1.51  H2[18O]
	H2O(g)           -1.51   -0.00    1.51  H2O
	HD(g)           -14.48  -17.93   -3.45  HD
	HD[18O](g)       -7.75   -6.51    1.25  HD[18O]
	HDO(g)           -5.05   -3.81    1.24  HDO
	HT(g)           -27.97  -31.12   -3.15  HT
	HT[18O](g)      -21.28  -19.70    1.58  HT[18O]
	HTO(g)          -18.58  -17.00    1.58  HTO
	O2(g)           -61.18  -64.14   -2.96  O2
	O[18O](g)       -63.88  -66.84   -2.96  O[18O]
	T2(g)           -45.57  -48.12   -2.55  T2
	T2[18O](g)      -38.95  -36.70    2.25  T2[18O]
	T2O(g)          -36.25  -34.00    2.24  T2O

------------------
End of simulation.
------------------

------------------------------------
Reading input data for simulation 3.
------------------------------------

-----------
End of run.
-----------

