   Input file: iso_example
  Output file: iso_example.out
Database file: ../database/iso.dat

------------------
Reading data base.
------------------

	SOLUTION_MASTER_SPECIES
	ISOTOPES
	ISOTOPE_RATIOS
	ISOTOPE_ALPHAS
	NAMED_EXPRESSIONS
	NAMED_EXPRESSIONS
	SOLUTION_SPECIES
	SOLUTION_SPECIES
	SOLUTION_SPECIES
	PHASES
	SOLUTION_SPECIES
	CALCULATE_VALUES
	SOLUTION_MASTER_SPECIES
	ISOTOPES
	ISOTOPE_RATIOS
	ISOTOPE_ALPHAS
	CALCULATE_VALUES
	NAMED_EXPRESSIONS
	SOLUTION_SPECIES
	PHASES
	SOLUTION_MASTER_SPECIES
	ISOTOPE_RATIOS
	ISOTOPE_ALPHAS
	CALCULATE_VALUES
	NAMED_EXPRESSIONS
	SOLUTION_SPECIES
	PHASES
	SOLUTION_MASTER_SPECIES
	ISOTOPE_RATIOS
	ISOTOPE_ALPHAS
	CALCULATE_VALUES
	NAMED_EXPRESSIONS
	SOLUTION_SPECIES
	PHASES
	SOLUTION_MASTER_SPECIES
	ISOTOPES
	ISOTOPE_RATIOS
	ISOTOPE_ALPHAS
	CALCULATE_VALUES
	NAMED_EXPRESSIONS
	SOLUTION_SPECIES
	PHASES
	SOLUTION_MASTER_SPECIES
	ISOTOPES
	ISOTOPE_RATIOS
	ISOTOPE_ALPHAS
	CALCULATE_VALUES
	NAMED_EXPRESSIONS
	SOLUTION_SPECIES
	PHASES
	END
------------------------------------
Reading input data for simulation 1.
------------------------------------

	DATABASE ../database/iso.dat
	SOLUTION 1
		pH	8.2
		Na	1	charge
		Ca	1	Calcite	 .1
		C	2	
		[13C]	0	# permil
		[14C]	100	# pmc
		T	10	# TU
		D	0	# permil
		[18O]	0	# permil
	END
-------------------------------------------
Beginning of initial solution calculations.
-------------------------------------------

Initial solution 1.	

-----------------------------------Isotopes------------------------------------

   Isotope	    Molality	       Moles	       Ratio	       Units

         H	1.10997e+002	1.10997e+002
         D	1.72889e-002	1.72889e-002	0.00000e+000	      permil
         T	5.55062e-016	5.55062e-016	1.00000e+001	          TU

         C	1.97789e-003	1.97789e-003
     [13C]	2.21132e-005	2.21132e-005	0.00000e+000	      permil
     [14C]	2.35178e-015	2.35178e-015	1.00000e+002	         pmc
 [13C](-4)	0.00000e+000	0.00000e+000	0.00000e+000	      permil

         O	5.54011e+001	5.54011e+001
     [18O]	1.11090e-001	1.11090e-001	0.00000e+000	      permil

-----------------------------Solution composition------------------------------

	Elements           Molality       Moles

	C                2.000e-003  2.000e-003
	Ca               3.909e-004  3.909e-004  Equilibrium with Calcite
	Na               1.218e-003  1.218e-003  Charge balance

----------------------------Description of solution----------------------------

                                       pH  =   8.200    
                                       pe  =   4.000    
                        Activity of water  =   1.000
                           Ionic strength  =  2.370e-003
                       Mass of water (kg)  =  1.000e+000
                 Total alkalinity (eq/kg)  =  2.000e-003
                       Total CO2 (mol/kg)  =  2.000e-003
                      Temperature (deg C)  =  25.000
                  Electrical balance (eq)  =  1.897e-012
 Percent error, 100*(Cat-|An|)/(Cat+|An|)  =   0.00
                               Iterations  =   8
                                  Total H  = 1.109971e+002
                                  Total O  = 5.540110e+001

----------------------------Distribution of species----------------------------

                                                   Log       Log         Log 
   Species                 Molality    Activity  Molality  Activity     Gamma

   OH-                   1.675e-006  1.586e-006    -5.776    -5.800    -0.023
   H3O+                  6.632e-009  6.310e-009    -8.178    -8.200    -0.022
   H2O                   5.551e+001  9.999e-001     1.744    -0.000     0.000
C(-4)           0.000e+000
   CH4                   0.000e+000  0.000e+000   -77.793   -77.793     0.000
C(4)            2.000e-003
   HCO3-                 1.941e-003  1.840e-003    -2.712    -2.735    -0.023
   CO2                   2.609e-005  2.611e-005    -4.583    -4.583     0.000
   CO3-2                 1.695e-005  1.368e-005    -4.771    -4.864    -0.093
   CaHCO3+               7.540e-006  7.154e-006    -5.123    -5.145    -0.023
   CaCO3                 7.001e-006  7.005e-006    -5.155    -5.155     0.000
   NaHCO3                1.193e-006  1.193e-006    -5.924    -5.923     0.000
   NaCO3-                3.099e-007  2.937e-007    -6.509    -6.532    -0.023
Ca              3.909e-004
   Ca+2                  3.764e-004  3.049e-004    -3.424    -3.516    -0.091
   CaHCO3+               7.540e-006  7.154e-006    -5.123    -5.145    -0.023
   CaCO3                 7.001e-006  7.005e-006    -5.155    -5.155     0.000
   CaOH+                 8.470e-023  8.028e-023   -22.072   -22.095    -0.023
H(0)            5.634e-028
   H2                    2.817e-028  2.819e-028   -27.550   -27.550     0.000
Na              1.218e-003
   Na+                   1.216e-003  1.153e-003    -2.915    -2.938    -0.023
   NaHCO3                1.193e-006  1.193e-006    -5.924    -5.923     0.000
   NaCO3-                3.099e-007  2.937e-007    -6.509    -6.532    -0.023
   NaOH                  1.208e-023  1.209e-023   -22.918   -22.918     0.000
O(0)            1.049e-037
   O2                    5.243e-038  5.246e-038   -37.280   -37.280     0.000

------------------------------Saturation indices-------------------------------

	Phase               SI log IAP  log KT

	Calcite           0.10    8.30    8.20  CaCO3
	CH4(g)          -74.93  -77.79   -2.86  CH4
	CO2(g)           -3.12   -4.58   -1.47  CO2
	H2(g)           -24.40  -27.55   -3.15  H2
	H2O(g)           -1.51   -0.00    1.51  H2O
	O2(g)           -34.32  -37.28   -2.96  O2

------------------
End of simulation.
------------------

------------------------------------
Reading input data for simulation 2.
------------------------------------

	USE solution 1
	GAS_PHASE
		fixed_volume	1
		H2O(g)		0
		HDO(g)		0
		D2O(g)		0
		H2[18O](g)	0
		HD[18O](g)	0
		D2[18O](g)	0
		HTO(g)		0
		HT[18O](g)	0
		DTO(g)		0
		CO2(g)		0
		CO[18O](g)	0
		C[18O]2(g)	0
		[13C]O2(g)	0
		[13C]O[18O](g)	0
		[13C][18O]2(g)	0
		[14C]O2(g)	0
		[14C]O[18O](g)	0
		[14C][18O]2(g)	0
	SOLID_SOLUTION
	Calcite
		component	Calcite         	0
		component	CaCO2[18O]      	0
		component	CaCO[18O]2      	0
		component	CaC[18O]3       	0
		component 	Ca[13C]O3       	0
		component	Ca[13C]O2[18O]  	0
		component	Ca[13C]O[18O]2  	0
		component	Ca[13C][18O]3   	0
		component 	Ca[14C]O3       	0
		component	Ca[14C]O2[18O]  	0
		component	Ca[14C]O[18O]2  	0
		component	Ca[14C][18O]3   	0
	END
-----------------------------------------
Beginning of batch-reaction calculations.
-----------------------------------------

Reaction step 1.

Using solution 1.	
Using solid solution assemblage 1.	
Using gas phase 1.	

-----------------------------------Gas phase-----------------------------------


Total pressure:   0.0317   atmospheres
    Gas volume:  1.00e+000 liters

                                                        Moles in gas
                                            ----------------------------------
Component                log P           P     Initial       Final       Delta

[13C][18O]2(g)          -10.41  3.914e-011  0.000e+000  1.600e-012  1.600e-012
[13C]O2(g)               -5.05  8.984e-006  0.000e+000  3.672e-007  3.672e-007
[13C]O[18O](g)           -7.43  3.751e-008  0.000e+000  1.533e-009  1.533e-009
[14C][18O]2(g)          -20.38  4.132e-021  0.000e+000  1.689e-022  1.689e-022
[14C]O2(g)              -15.02  9.483e-016  0.000e+000  3.876e-017  3.876e-017
[14C]O[18O](g)          -17.40  3.959e-018  0.000e+000  1.618e-019  1.618e-019
C[18O]2(g)               -8.45  3.528e-009  0.000e+000  1.442e-010  1.442e-010
CO2(g)                   -3.09  8.097e-004  0.000e+000  3.310e-005  3.310e-005
CO[18O](g)               -5.47  3.380e-006  0.000e+000  1.382e-007  1.382e-007
D2[18O](g)              -11.89  1.276e-012  0.000e+000  5.214e-014  5.214e-014
D2O(g)                   -9.19  6.421e-010  0.000e+000  2.625e-011  2.625e-011
DTO(g)                  -22.42  3.820e-023  0.000e+000  1.561e-024  1.561e-024
H2[18O](g)               -4.21  6.125e-005  0.000e+000  2.504e-006  2.504e-006
H2O(g)                   -1.51  3.083e-002  0.000e+000  1.260e-003  1.260e-003
HD[18O](g)               -7.75  1.768e-008  0.000e+000  7.226e-010  7.226e-010
HDO(g)                   -5.05  8.899e-006  0.000e+000  3.637e-007  3.637e-007
HT[18O](g)              -21.28  5.259e-022  0.000e+000  2.149e-023  2.149e-023
HTO(g)                  -18.58  2.647e-019  0.000e+000  1.082e-020  1.082e-020

--------------------------------Solid solutions--------------------------------


Solid solution                Component        Moles  Delta moles   Mole fract

Calcite                                    3.93e-005
                                Calcite    3.86e-005    3.86e-005    9.83e-001
                             CaCO2[18O]    2.39e-007    2.39e-007    6.08e-003
                             CaCO[18O]2    4.93e-010    4.93e-010    1.25e-005
                              CaC[18O]3    3.38e-013    3.38e-013    8.61e-009
                              Ca[13C]O3    4.33e-007    4.33e-007    1.10e-002
                         Ca[13C]O2[18O]    2.68e-009    2.68e-009    6.81e-005
                         Ca[13C]O[18O]2    5.52e-012    5.52e-012    1.40e-007
                          Ca[13C][18O]3    3.79e-015    3.79e-015    9.65e-011
                              Ca[14C]O3    4.61e-017    4.61e-017    1.17e-012
                         Ca[14C]O2[18O]    2.85e-019    2.85e-019    7.26e-015
                         Ca[14C]O[18O]2    5.88e-022    5.88e-022    1.50e-017
                          Ca[14C][18O]3    4.04e-025    3.04e-025    1.03e-020

--------------------------------Isotope Ratios---------------------------------

            Isotope Ratio	       Ratio	    Input Units

     R(13C) Calcite      	1.12049e-002	         2.2081  permil    
     R(18O) Calcite      	2.06136e-003	         28.009  permil    
     R(13C) CO2(g)       	1.10956e-002	        -7.5673  permil    
     R(18O) CO2(g)       	2.08734e-003	         40.964  permil    
     R(13C) CO2(aq)      	1.10863e-002	        -8.3998  permil    
     R(18O) CO2(aq)      	2.08958e-003	          42.08  permil    
     R(13C) HCO3-        	1.11827e-002	        0.22704  permil    
     R(D) HCO3-          	1.55760e-004	      0.0016832  permil    
     R(18O) HCO3-        	2.08956e-003	         42.072  permil    
     R(13C) CO3-2        	1.11667e-002	        -1.2084  permil    
     R(18O) CO3-2        	2.08958e-003	          42.08  permil    
     R(18O) H2O(l)       	2.00519e-003	     -0.0042573  permil    
     R(D) H2O(l)         	1.55760e-004	      0.0016832  permil    
     R(D) OH-            	3.70889e-005	        -761.88  permil    
     R(18O) OH-          	1.93085e-003	        -37.076  permil    
     R(D) H3O+           	1.62250e-004	         41.666  permil    
     R(18O) H3O+         	2.05156e-003	         23.119  permil    
     R(18O) H2O(g)       	1.98657e-003	        -9.2908  permil    
     R(D) H2O(g)         	1.44310e-004	        -73.512  permil    
     R(D)                	1.55760e-004	      0.0016729  permil    
     R(T)                	1.00232e-017	         10.023  TU        
     R(18O)              	2.00520e-003	     0.00010232  permil    
     R(13C)              	1.11812e-002	       0.086919  permil    
     R(14C)              	1.17609e-012	         100.02  pmc       
     R(13C) CH4(aq)      	1.11667e-002	        -1.2084  permil    
     R(D) CH4(aq)        	1.62250e-004	         41.666  permil    
     R(D) H2(aq)         	1.62250e-004	         41.666  permil    

--------------------------------Isotope Alphas---------------------------------

                                                              1000ln(Alpha)
                                                         ----------------------
     Isotope Ratio                   Solution alpha      Solution        25.0 C

Alpha 18O CO2(aq)/CO2(g)                     1.0011        1.0715        1.0715
Alpha 13C CO2(aq)/CO2(g)                    0.99916      -0.83913      -0.83913
Alpha 18O CO2(aq)/H2O(l)                     1.0421        41.223        41.223
Alpha D H2O(l)/H2O(g)                        1.0793        76.356        76.356
Alpha 18O H2O(l)/H2O(g)                      1.0094          9.33          9.33
Alpha 18O H3O+/H2O(l)                        1.0231         22.86         22.86
Alpha D H3O+/H2O(l)                          1.0417         40.82         40.82
Alpha 18O OH-/H2O(l)                        0.96293       -37.777       -37.777
Alpha D OH-/H2O(l)                          0.23812         -1435         -1435
Alpha 13C CO3-2/CO2(aq)                      1.0073        7.2261        7.2261
Alpha 18O CO3-2/CO2(aq)                           1  -1.5323e-009             0
Alpha 13C HCO3-/CO2(aq)                      1.0087        8.6622        8.6622
Alpha 18O HCO3-/CO2(aq)                     0.99999    -0.0076108             0
Alpha D HCO3-/H2O(l)                              1   1.2081e-009             0
Alpha 13C CO2(aq)/Calcite                   0.98942       -10.641       -10.641
Alpha 18O CO2(aq)/Calcite                    1.0137        13.594        13.594
Alpha 13C CH4(aq)/CO3-2                           1   3.4639e-011             0
Alpha D CH4(aq)/H3O+                              1   1.7181e-007             0
Alpha D H2(aq)/H3O+                               1   1.5608e-009             0

-----------------------------Solution composition------------------------------

	Elements           Molality       Moles

	[13C]            2.138e-005  2.131e-005
	[14C]            2.274e-015  2.266e-015
	[18O]            1.114e-001  1.111e-001
	C                1.912e-003  1.906e-003
	Ca               3.527e-004  3.516e-004
	D                1.734e-002  1.729e-002
	Na               1.222e-003  1.218e-003
	T                5.568e-016  5.551e-016

----------------------------Description of solution----------------------------

                                       pH  =   8.157      Charge balance
                                       pe  =  -2.577      Adjusted to redox equilibrium
                        Activity of water  =   0.998
                           Ionic strength  =  2.264e-003
                       Mass of water (kg)  =  9.968e-001
                 Total alkalinity (eq/kg)  =  1.927e-003
                       Total CO2 (mol/kg)  =  1.912e-003
                      Temperature (deg C)  =  25.000
                  Electrical balance (eq)  =  1.897e-012
 Percent error, 100*(Cat-|An|)/(Cat+|An|)  =   0.00
                               Iterations  =  48
                                  Total H  = 1.109946e+002
                                  Total O  = 5.539966e+001

----------------------------Distribution of species----------------------------

                                                   Log       Log         Log 
   Species                 Molality    Activity  Molality  Activity     Gamma

   OH-                   1.507e-006  1.429e-006    -5.822    -5.845    -0.023
   H3O+                  7.322e-009  6.973e-009    -8.135    -8.157    -0.021
   H2O                   5.556e+001  9.978e-001     1.745    -0.001     0.000
C(-4)           1.588e-025
   CH4                   1.587e-025  1.588e-025   -24.799   -24.799     0.000
   CH3D                  1.030e-028  1.031e-028   -27.987   -27.987     0.000
   CH2D2                 2.507e-032  2.508e-032   -31.601   -31.601     0.000
   CHD3                  2.712e-036  2.713e-036   -35.567   -35.567     0.000
   CD4                   1.100e-040  1.101e-040   -39.959   -39.958     0.000
C(4)            1.912e-003
   HCO3-                 1.844e-003  1.750e-003    -2.734    -2.757    -0.023
   CO2                   2.755e-005  2.757e-005    -4.560    -4.560     0.000
   CO3-2                 1.449e-005  1.175e-005    -4.839    -4.930    -0.091
   HCO2[18O]-            1.147e-005  1.088e-005    -4.941    -4.963    -0.023
   CaHCO3+               6.512e-006  6.186e-006    -5.186    -5.209    -0.022
   CaCO3                 5.466e-006  5.469e-006    -5.262    -5.262     0.000
   NaHCO3                1.140e-006  1.140e-006    -5.943    -5.943     0.000
   DCO3-                 2.873e-007  2.726e-007    -6.542    -6.564    -0.023
   NaCO3-                2.671e-007  2.534e-007    -6.573    -6.596    -0.023
   CO[18O]               1.151e-007  1.152e-007    -6.939    -6.939     0.000
   CO2[18O]-2            9.084e-008  7.364e-008    -7.042    -7.133    -0.091
   HCO[18O]2-            7.128e-008  6.764e-008    -7.147    -7.170    -0.023
   CaHCO2[18O]+          4.049e-008  3.846e-008    -7.393    -7.415    -0.022
   CaCO2[18O]            3.426e-008  3.428e-008    -7.465    -7.465     0.000
   NaHCO2[18O]           7.084e-009  7.088e-009    -8.150    -8.149     0.000
   DCO2[18O]-            1.786e-009  1.695e-009    -8.748    -8.771    -0.023
   NaCO2[18O]-           1.674e-009  1.589e-009    -8.776    -8.799    -0.023
   CaDCO3+               1.014e-009  9.635e-010    -8.994    -9.016    -0.022
   HC[18O]3-             4.431e-010  4.205e-010    -9.353    -9.376    -0.023
   CaHCO[18O]2+          2.517e-010  2.391e-010    -9.599    -9.621    -0.022
   CO[18O]2-2            1.898e-010  1.539e-010    -9.722    -9.813    -0.091
   NaDCO3                1.775e-010  1.776e-010    -9.751    -9.751     0.000
   C[18O]2               1.203e-010  1.204e-010    -9.920    -9.919     0.000
   CaCO[18O]2            7.160e-011  7.164e-011   -10.145   -10.145     0.000
   NaHCO[18O]2           4.404e-011  4.407e-011   -10.356   -10.356     0.000
   DCO[18O]2-            1.110e-011  1.054e-011   -10.955   -10.977    -0.023
   CaDCO2[18O]+          6.306e-012  5.990e-012   -11.200   -11.223    -0.022
   NaCO[18O]2-           3.498e-012  3.320e-012   -11.456   -11.479    -0.023
   CaHC[18O]3+           1.565e-012  1.486e-012   -11.806   -11.828    -0.022
   NaDCO2[18O]           1.103e-012  1.104e-012   -11.957   -11.957     0.000
   NaHC[18O]3            2.738e-013  2.739e-013   -12.563   -12.562     0.000
   C[18O]3-2             1.322e-013  1.072e-013   -12.879   -12.970    -0.091
   DC[18O]3-             6.902e-014  6.549e-014   -13.161   -13.184    -0.023
   CaC[18O]3             4.987e-014  4.990e-014   -13.302   -13.302     0.000
   CaDCO[18O]2+          3.920e-014  3.724e-014   -13.407   -13.429    -0.022
   NaDCO[18O]2           6.860e-015  6.864e-015   -14.164   -14.163     0.000
   NaC[18O]3-            2.437e-015  2.312e-015   -14.613   -14.636    -0.023
   CaDC[18O]3+           2.437e-016  2.315e-016   -15.613   -15.635    -0.022
   NaDC[18O]3            4.265e-017  4.267e-017   -16.370   -16.370     0.000
   TCO3-                 9.223e-021  8.752e-021   -20.035   -20.058    -0.023
   TCO2[18O]-            5.734e-023  5.441e-023   -22.242   -22.264    -0.023
   CaTCO3+               3.257e-023  3.093e-023   -22.487   -22.510    -0.022
   NaTCO3                5.699e-024  5.702e-024   -23.244   -23.244     0.000
   CaTCO2[18O]+          2.025e-025  1.923e-025   -24.694   -24.716    -0.022
   NaTCO2[18O]           3.543e-026  3.545e-026   -25.451   -25.450     0.000
Ca              3.527e-004
   Ca+2                  3.406e-004  2.771e-004    -3.468    -3.557    -0.090
   CaHCO3+               6.512e-006  6.186e-006    -5.186    -5.209    -0.022
   CaCO3                 5.466e-006  5.469e-006    -5.262    -5.262     0.000
   CaH[13C]O3+           7.283e-008  6.917e-008    -7.138    -7.160    -0.022
   Ca[13C]O3             6.104e-008  6.107e-008    -7.214    -7.214     0.000
   CaHCO2[18O]+          4.049e-008  3.846e-008    -7.393    -7.415    -0.022
   CaCO2[18O]            3.426e-008  3.428e-008    -7.465    -7.465     0.000
   CaDCO3+               1.014e-009  9.635e-010    -8.994    -9.016    -0.022
   CaH[13C]O2[18O]+      4.527e-010  4.300e-010    -9.344    -9.366    -0.022
   Ca[13C]O2[18O]        3.826e-010  3.828e-010    -9.417    -9.417     0.000
   CaHCO[18O]2+          2.517e-010  2.391e-010    -9.599    -9.621    -0.022
   CaCO[18O]2            7.160e-011  7.164e-011   -10.145   -10.145     0.000
   CaD[13C]O3+           1.134e-011  1.077e-011   -10.945   -10.968    -0.022
   CaDCO2[18O]+          6.306e-012  5.990e-012   -11.200   -11.223    -0.022
   CaH[13C]O[18O]2+      2.815e-012  2.673e-012   -11.551   -11.573    -0.022
   CaHC[18O]3+           1.565e-012  1.486e-012   -11.806   -11.828    -0.022
   Ca[13C]O[18O]2        7.995e-013  7.999e-013   -12.097   -12.097     0.000
   CaD[13C]O2[18O]+      7.052e-014  6.698e-014   -13.152   -13.174    -0.022
   CaC[18O]3             4.987e-014  4.990e-014   -13.302   -13.302     0.000
   CaDCO[18O]2+          3.920e-014  3.724e-014   -13.407   -13.429    -0.022
   CaH[13C][18O]3+       1.750e-014  1.662e-014   -13.757   -13.779    -0.022
   Ca[13C][18O]3         5.569e-016  5.572e-016   -15.254   -15.254     0.000
   CaD[13C]O[18O]2+      4.384e-016  4.164e-016   -15.358   -15.380    -0.022
   CaDC[18O]3+           2.437e-016  2.315e-016   -15.613   -15.635    -0.022
   CaH[14C]O3+           7.747e-018  7.358e-018   -17.111   -17.133    -0.022
   Ca[14C]O3             6.484e-018  6.487e-018   -17.188   -17.188     0.000
   CaD[13C][18O]3+       2.725e-018  2.589e-018   -17.565   -17.587    -0.022
   CaH[14C]O2[18O]+      4.816e-020  4.575e-020   -19.317   -19.340    -0.022
   Ca[14C]O2[18O]        4.064e-020  4.066e-020   -19.391   -19.391     0.000
   CaD[14C]O3+           1.207e-021  1.146e-021   -20.918   -20.941    -0.022
   CaH[14C]O[18O]2+      2.994e-022  2.844e-022   -21.524   -21.546    -0.022
   Ca[14C]O[18O]2        8.493e-023  8.497e-023   -22.071   -22.071     0.000
   CaOH+                 6.927e-023  6.573e-023   -22.159   -22.182    -0.023
   CaTCO3+               3.257e-023  3.093e-023   -22.487   -22.510    -0.022
   CaD[14C]O2[18O]+      7.502e-024  7.125e-024   -23.125   -23.147    -0.022
   CaH[14C][18O]3+       1.861e-024  1.768e-024   -23.730   -23.753    -0.022
   CaT[13C]O3+           3.642e-025  3.459e-025   -24.439   -24.461    -0.022
   CaTCO2[18O]+          2.025e-025  1.923e-025   -24.694   -24.716    -0.022
   Ca[18O]H+             1.338e-025  1.269e-025   -24.874   -24.896    -0.023
   Ca[14C][18O]3         5.915e-026  5.919e-026   -25.228   -25.228     0.000
   CaD[14C]O[18O]2+      4.664e-026  4.430e-026   -25.331   -25.354    -0.022
   CaOD+                 2.569e-027  2.438e-027   -26.590   -26.613    -0.023
   CaD[14C][18O]3+       2.899e-028  2.754e-028   -27.538   -27.560    -0.022
   Ca[18O]D+             4.961e-030  4.707e-030   -29.304   -29.327    -0.023
   CaOT+                 0.000e+000  0.000e+000   -40.707   -40.730    -0.023
   Ca[18O]T+             0.000e+000  0.000e+000   -43.421   -43.444    -0.023
D(0)            1.596e-018
   HD                    1.596e-018  1.597e-018   -17.797   -17.797     0.000
   D2                    1.295e-022  1.295e-022   -21.888   -21.888     0.000
D(1)            1.734e-002
   HDO                   1.731e-002  3.108e-004    -1.762    -3.507    -1.746
   HD[18O]               3.470e-005  6.233e-007    -4.460    -6.205    -1.746
   D2O                   1.348e-006  2.421e-008    -5.870    -7.616    -1.746
   DCO3-                 2.873e-007  2.726e-007    -6.542    -6.564    -0.023
   D[13C]O3-             3.213e-009  3.048e-009    -8.493    -8.516    -0.023
   D2[18O]               2.703e-009  4.854e-011    -8.568   -10.314    -1.746
   DCO2[18O]-            1.786e-009  1.695e-009    -8.748    -8.771    -0.023
   CaDCO3+               1.014e-009  9.635e-010    -8.994    -9.016    -0.022
   NaDCO3                1.775e-010  1.776e-010    -9.751    -9.751     0.000
   OD-                   5.589e-011  5.301e-011   -10.253   -10.276    -0.023
   D[13C]O2[18O]-        1.997e-011  1.895e-011   -10.700   -10.722    -0.023
   CaD[13C]O3+           1.134e-011  1.077e-011   -10.945   -10.968    -0.022
   DCO[18O]2-            1.110e-011  1.054e-011   -10.955   -10.977    -0.023
   CaDCO2[18O]+          6.306e-012  5.990e-012   -11.200   -11.223    -0.022
   H2DO+                 3.564e-012  3.394e-012   -11.448   -11.469    -0.021
   NaD[13C]O3            1.985e-012  1.986e-012   -11.702   -11.702     0.000
   NaDCO2[18O]           1.103e-012  1.104e-012   -11.957   -11.957     0.000
   D[13C]O[18O]2-        1.242e-013  1.178e-013   -12.906   -12.929    -0.023
   [18O]D-               1.079e-013  1.024e-013   -12.967   -12.990    -0.023
   CaD[13C]O2[18O]+      7.052e-014  6.698e-014   -13.152   -13.174    -0.022
   DC[18O]3-             6.902e-014  6.549e-014   -13.161   -13.184    -0.023
   CaDCO[18O]2+          3.920e-014  3.724e-014   -13.407   -13.429    -0.022
   NaD[13C]O2[18O]       1.234e-014  1.235e-014   -13.909   -13.908     0.000
   H2D[18O]+             7.312e-015  6.963e-015   -14.136   -14.157    -0.021
   NaDCO[18O]2           6.860e-015  6.864e-015   -14.164   -14.163     0.000
   D[13C][18O]3-         7.718e-016  7.324e-016   -15.112   -15.135    -0.023
   HD2O+                 5.783e-016  5.507e-016   -15.238   -15.259    -0.021
   CaD[13C]O[18O]2+      4.384e-016  4.164e-016   -15.358   -15.380    -0.022
   CaDC[18O]3+           2.437e-016  2.315e-016   -15.613   -15.635    -0.022
   NaD[13C]O[18O]2       7.671e-017  7.675e-017   -16.115   -16.115     0.000
   NaDC[18O]3            4.265e-017  4.267e-017   -16.370   -16.370     0.000
   CaD[13C][18O]3+       2.725e-018  2.589e-018   -17.565   -17.587    -0.022
   HD2[18O]+             1.186e-018  1.130e-018   -17.926   -17.947    -0.021
   NaD[13C][18O]3        4.769e-019  4.771e-019   -18.322   -18.321     0.000
   D[14C]O3-             3.417e-019  3.243e-019   -18.466   -18.489    -0.023
   DTO                   8.655e-020  1.554e-021   -19.063   -20.808    -1.746
   D3O+                  3.127e-020  2.978e-020   -19.505   -19.526    -0.021
   D[14C]O2[18O]-        2.125e-021  2.016e-021   -20.673   -20.696    -0.023
   CaD[14C]O3+           1.207e-021  1.146e-021   -20.918   -20.941    -0.022
   NaD[14C]O3            2.111e-022  2.113e-022   -21.675   -21.675     0.000
   D3[18O]+              6.416e-023  6.110e-023   -22.193   -22.214    -0.021
   D[14C]O[18O]2-        1.321e-023  1.253e-023   -22.879   -22.902    -0.023
   CaD[14C]O2[18O]+      7.502e-024  7.125e-024   -23.125   -23.147    -0.022
   NaD[14C]O2[18O]       1.313e-024  1.313e-024   -23.882   -23.882     0.000
   D[14C][18O]3-         8.211e-026  7.791e-026   -25.086   -25.108    -0.023
   CaD[14C]O[18O]2+      4.664e-026  4.430e-026   -25.331   -25.354    -0.022
   NaD[14C]O[18O]2       8.160e-027  8.165e-027   -26.088   -26.088     0.000
   CaOD+                 2.569e-027  2.438e-027   -26.590   -26.613    -0.023
   NaOD                  4.055e-028  4.058e-028   -27.392   -27.392     0.000
   CaD[14C][18O]3+       2.899e-028  2.754e-028   -27.538   -27.560    -0.022
   CH3D                  1.030e-028  1.031e-028   -27.987   -27.987     0.000
   NaD[14C][18O]3        5.073e-029  5.076e-029   -28.295   -28.295     0.000
   HDTO+                 9.670e-030  9.208e-030   -29.015   -29.036    -0.021
   Ca[18O]D+             4.961e-030  4.707e-030   -29.304   -29.327    -0.023
   [13C]H3D              1.150e-030  1.151e-030   -29.939   -29.939     0.000
   Na[18O]D              7.830e-031  7.834e-031   -30.106   -30.106     0.000
   CH2D2                 2.507e-032  2.508e-032   -31.601   -31.601     0.000
   [13C]H2D2             2.800e-034  2.801e-034   -33.553   -33.553     0.000
   CHD3                  2.712e-036  2.713e-036   -35.567   -35.567     0.000
   [13C]HD3              3.028e-038  3.030e-038   -37.519   -37.519     0.000
   CD4                   1.100e-040  1.101e-040   -39.959   -39.958     0.000
   [13C]D4               0.000e+000  0.000e+000   -41.911   -41.910     0.000
H(0)            9.839e-015
   H2                    4.919e-015  4.921e-015   -14.308   -14.308     0.000
   HD                    1.596e-018  1.597e-018   -17.797   -17.797     0.000
Na              1.222e-003
   Na+                   1.220e-003  1.159e-003    -2.913    -2.936    -0.023
   NaHCO3                1.140e-006  1.140e-006    -5.943    -5.943     0.000
   NaCO3-                2.671e-007  2.534e-007    -6.573    -6.596    -0.023
   NaH[13C]O3            1.274e-008  1.275e-008    -7.895    -7.894     0.000
   NaHCO2[18O]           7.084e-009  7.088e-009    -8.150    -8.149     0.000
   Na[13C]O3-            2.982e-009  2.830e-009    -8.525    -8.548    -0.023
   NaCO2[18O]-           1.674e-009  1.589e-009    -8.776    -8.799    -0.023
   NaDCO3                1.775e-010  1.776e-010    -9.751    -9.751     0.000
   NaH[13C]O2[18O]       7.922e-011  7.926e-011   -10.101   -10.101     0.000
   NaHCO[18O]2           4.404e-011  4.407e-011   -10.356   -10.356     0.000
   Na[13C]O2[18O]-       1.870e-011  1.774e-011   -10.728   -10.751    -0.023
   NaCO[18O]2-           3.498e-012  3.320e-012   -11.456   -11.479    -0.023
   NaD[13C]O3            1.985e-012  1.986e-012   -11.702   -11.702     0.000
   NaDCO2[18O]           1.103e-012  1.104e-012   -11.957   -11.957     0.000
   NaH[13C]O[18O]2       4.925e-013  4.928e-013   -12.308   -12.307     0.000
   NaHC[18O]3            2.738e-013  2.739e-013   -12.563   -12.562     0.000
   Na[13C]O[18O]2-       3.907e-014  3.707e-014   -13.408   -13.431    -0.023
   NaD[13C]O2[18O]       1.234e-014  1.235e-014   -13.909   -13.908     0.000
   NaDCO[18O]2           6.860e-015  6.864e-015   -14.164   -14.163     0.000
   NaH[13C][18O]3        3.062e-015  3.063e-015   -14.514   -14.514     0.000
   NaC[18O]3-            2.437e-015  2.312e-015   -14.613   -14.636    -0.023
   NaD[13C]O[18O]2       7.671e-017  7.675e-017   -16.115   -16.115     0.000
   NaDC[18O]3            4.265e-017  4.267e-017   -16.370   -16.370     0.000
   Na[13C][18O]3-        2.721e-017  2.582e-017   -16.565   -16.588    -0.023
   NaH[14C]O3            1.356e-018  1.356e-018   -17.868   -17.868     0.000
   NaD[13C][18O]3        4.769e-019  4.771e-019   -18.322   -18.321     0.000
   Na[14C]O3-            3.168e-019  3.006e-019   -18.499   -18.522    -0.023
   NaH[14C]O2[18O]       8.427e-021  8.432e-021   -20.074   -20.074     0.000
   Na[14C]O2[18O]-       1.986e-021  1.884e-021   -20.702   -20.725    -0.023
   NaD[14C]O3            2.111e-022  2.113e-022   -21.675   -21.675     0.000
   NaH[14C]O[18O]2       5.239e-023  5.242e-023   -22.281   -22.281     0.000
   NaOH                  1.093e-023  1.094e-023   -22.961   -22.961     0.000
   NaTCO3                5.699e-024  5.702e-024   -23.244   -23.244     0.000
   Na[14C]O[18O]2-       4.150e-024  3.938e-024   -23.382   -23.405    -0.023
   NaD[14C]O2[18O]       1.313e-024  1.313e-024   -23.882   -23.882     0.000
   NaH[14C][18O]3        3.257e-025  3.259e-025   -24.487   -24.487     0.000
   NaT[13C]O3            6.373e-026  6.376e-026   -25.196   -25.195     0.000
   NaTCO2[18O]           3.543e-026  3.545e-026   -25.451   -25.450     0.000
   Na[18O]H              2.111e-026  2.112e-026   -25.675   -25.675     0.000
   NaD[14C]O[18O]2       8.160e-027  8.165e-027   -26.088   -26.088     0.000
   Na[14C][18O]3-        2.890e-027  2.743e-027   -26.539   -26.562    -0.023
   NaOD                  4.055e-028  4.058e-028   -27.392   -27.392     0.000
   NaD[14C][18O]3        5.073e-029  5.076e-029   -28.295   -28.295     0.000
   Na[18O]D              7.830e-031  7.834e-031   -30.106   -30.106     0.000
   NaOT                  0.000e+000  0.000e+000   -41.509   -41.508     0.000
   Na[18O]T              0.000e+000  0.000e+000   -44.223   -44.223     0.000
O(0)            0.000e+000
   O2                    0.000e+000  0.000e+000   -63.766   -63.766     0.000
   O[18O]                0.000e+000  0.000e+000   -66.153   -66.153     0.000
T               5.568e-016
   HTO                   5.556e-016  9.979e-018   -15.255   -17.001    -1.746
   HT[18O]               1.114e-018  2.001e-020   -17.953   -19.699    -1.746
   DTO                   8.655e-020  1.554e-021   -19.063   -20.808    -1.746
   TCO3-                 9.223e-021  8.752e-021   -20.035   -20.058    -0.023
   T[13C]O3-             1.031e-022  9.787e-023   -21.987   -22.009    -0.023
   TCO2[18O]-            5.734e-023  5.441e-023   -22.242   -22.264    -0.023
   CaTCO3+               3.257e-023  3.093e-023   -22.487   -22.510    -0.022
   NaTCO3                5.699e-024  5.702e-024   -23.244   -23.244     0.000
   OT-                   4.273e-025  4.053e-025   -24.369   -24.392    -0.023
   CaT[13C]O3+           3.642e-025  3.459e-025   -24.439   -24.461    -0.022
   CaTCO2[18O]+          2.025e-025  1.923e-025   -24.694   -24.716    -0.022
   H2TO+                 1.192e-025  1.135e-025   -24.924   -24.945    -0.021
   NaT[13C]O3            6.373e-026  6.376e-026   -25.196   -25.195     0.000
   NaTCO2[18O]           3.543e-026  3.545e-026   -25.451   -25.450     0.000
   [18O]T-               8.250e-028  7.825e-028   -27.084   -27.107    -0.023
   H2T[18O]+             2.445e-028  2.329e-028   -27.612   -27.633    -0.021
   HDTO+                 9.670e-030  9.208e-030   -29.015   -29.036    -0.021
   CaOT+                 0.000e+000  0.000e+000   -40.707   -40.730    -0.023
   NaOT                  0.000e+000  0.000e+000   -41.509   -41.508     0.000
   Ca[18O]T+             0.000e+000  0.000e+000   -43.421   -43.444    -0.023
   Na[18O]T              0.000e+000  0.000e+000   -44.223   -44.223     0.000
[13C](-4)       1.774e-027
   [13C]H4               1.772e-027  1.773e-027   -26.751   -26.751     0.000
   [13C]H3D              1.150e-030  1.151e-030   -29.939   -29.939     0.000
   [13C]H2D2             2.800e-034  2.801e-034   -33.553   -33.553     0.000
   [13C]HD3              3.028e-038  3.030e-038   -37.519   -37.519     0.000
   [13C]D4               0.000e+000  0.000e+000   -41.911   -41.910     0.000
[13C](4)        2.138e-005
   H[13C]O3-             2.063e-005  1.957e-005    -4.686    -4.708    -0.023
   [13C]O2               3.055e-007  3.056e-007    -6.515    -6.515     0.000
   [13C]O3-2             1.618e-007  1.312e-007    -6.791    -6.882    -0.091
   H[13C]O2[18O]-        1.282e-007  1.217e-007    -6.892    -6.915    -0.023
   CaH[13C]O3+           7.283e-008  6.917e-008    -7.138    -7.160    -0.022
   Ca[13C]O3             6.104e-008  6.107e-008    -7.214    -7.214     0.000
   NaH[13C]O3            1.274e-008  1.275e-008    -7.895    -7.894     0.000
   D[13C]O3-             3.213e-009  3.048e-009    -8.493    -8.516    -0.023
   Na[13C]O3-            2.982e-009  2.830e-009    -8.525    -8.548    -0.023
   [13C]O[18O]           1.277e-009  1.277e-009    -8.894    -8.894     0.000
   [13C]O2[18O]-2        1.014e-009  8.223e-010    -8.994    -9.085    -0.091
   H[13C]O[18O]2-        7.971e-010  7.564e-010    -9.098    -9.121    -0.023
   CaH[13C]O2[18O]+      4.527e-010  4.300e-010    -9.344    -9.366    -0.022
   Ca[13C]O2[18O]        3.826e-010  3.828e-010    -9.417    -9.417     0.000
   NaH[13C]O2[18O]       7.922e-011  7.926e-011   -10.101   -10.101     0.000
   D[13C]O2[18O]-        1.997e-011  1.895e-011   -10.700   -10.722    -0.023
   Na[13C]O2[18O]-       1.870e-011  1.774e-011   -10.728   -10.751    -0.023
   CaD[13C]O3+           1.134e-011  1.077e-011   -10.945   -10.968    -0.022
   H[13C][18O]3-         4.955e-012  4.702e-012   -11.305   -11.328    -0.023
   CaH[13C]O[18O]2+      2.815e-012  2.673e-012   -11.551   -11.573    -0.022
   [13C]O[18O]2-2        2.120e-012  1.718e-012   -11.674   -11.765    -0.091
   NaD[13C]O3            1.985e-012  1.986e-012   -11.702   -11.702     0.000
   [13C][18O]2           1.334e-012  1.334e-012   -11.875   -11.875     0.000
   Ca[13C]O[18O]2        7.995e-013  7.999e-013   -12.097   -12.097     0.000
   NaH[13C]O[18O]2       4.925e-013  4.928e-013   -12.308   -12.307     0.000
   D[13C]O[18O]2-        1.242e-013  1.178e-013   -12.906   -12.929    -0.023
   CaD[13C]O2[18O]+      7.052e-014  6.698e-014   -13.152   -13.174    -0.022
   Na[13C]O[18O]2-       3.907e-014  3.707e-014   -13.408   -13.431    -0.023
   CaH[13C][18O]3+       1.750e-014  1.662e-014   -13.757   -13.779    -0.022
   NaD[13C]O2[18O]       1.234e-014  1.235e-014   -13.909   -13.908     0.000
   NaH[13C][18O]3        3.062e-015  3.063e-015   -14.514   -14.514     0.000
   [13C][18O]3-2         1.476e-015  1.197e-015   -14.831   -14.922    -0.091
   D[13C][18O]3-         7.718e-016  7.324e-016   -15.112   -15.135    -0.023
   Ca[13C][18O]3         5.569e-016  5.572e-016   -15.254   -15.254     0.000
   CaD[13C]O[18O]2+      4.384e-016  4.164e-016   -15.358   -15.380    -0.022
   NaD[13C]O[18O]2       7.671e-017  7.675e-017   -16.115   -16.115     0.000
   Na[13C][18O]3-        2.721e-017  2.582e-017   -16.565   -16.588    -0.023
   CaD[13C][18O]3+       2.725e-018  2.589e-018   -17.565   -17.587    -0.022
   NaD[13C][18O]3        4.769e-019  4.771e-019   -18.322   -18.321     0.000
   T[13C]O3-             1.031e-022  9.787e-023   -21.987   -22.009    -0.023
   CaT[13C]O3+           3.642e-025  3.459e-025   -24.439   -24.461    -0.022
   NaT[13C]O3            6.373e-026  6.376e-026   -25.196   -25.195     0.000
[14C](4)        2.274e-015
   H[14C]O3-             2.194e-015  2.082e-015   -14.659   -14.682    -0.023
   [14C]O2               3.221e-017  3.223e-017   -16.492   -16.492     0.000
   [14C]O3-2             1.719e-017  1.393e-017   -16.765   -16.856    -0.091
   H[14C]O2[18O]-        1.364e-017  1.294e-017   -16.865   -16.888    -0.023
   CaH[14C]O3+           7.747e-018  7.358e-018   -17.111   -17.133    -0.022
   Ca[14C]O3             6.484e-018  6.487e-018   -17.188   -17.188     0.000
   NaH[14C]O3            1.356e-018  1.356e-018   -17.868   -17.868     0.000
   D[14C]O3-             3.417e-019  3.243e-019   -18.466   -18.489    -0.023
   Na[14C]O3-            3.168e-019  3.006e-019   -18.499   -18.522    -0.023
   [14C]O[18O]           1.346e-019  1.347e-019   -18.871   -18.871     0.000
   [14C]O2[18O]-2        1.077e-019  8.735e-020   -18.968   -19.059    -0.091
   H[14C]O[18O]2-        8.480e-020  8.046e-020   -19.072   -19.094    -0.023
   CaH[14C]O2[18O]+      4.816e-020  4.575e-020   -19.317   -19.340    -0.022
   Ca[14C]O2[18O]        4.064e-020  4.066e-020   -19.391   -19.391     0.000
   NaH[14C]O2[18O]       8.427e-021  8.432e-021   -20.074   -20.074     0.000
   D[14C]O2[18O]-        2.125e-021  2.016e-021   -20.673   -20.696    -0.023
   Na[14C]O2[18O]-       1.986e-021  1.884e-021   -20.702   -20.725    -0.023
   CaD[14C]O3+           1.207e-021  1.146e-021   -20.918   -20.941    -0.022
   H[14C][18O]3-         5.271e-022  5.002e-022   -21.278   -21.301    -0.023
   CaH[14C]O[18O]2+      2.994e-022  2.844e-022   -21.524   -21.546    -0.022
   [14C]O[18O]2-2        2.251e-022  1.825e-022   -21.648   -21.739    -0.091
   NaD[14C]O3            2.111e-022  2.113e-022   -21.675   -21.675     0.000
   [14C][18O]2           1.407e-022  1.407e-022   -21.852   -21.852     0.000
   Ca[14C]O[18O]2        8.493e-023  8.497e-023   -22.071   -22.071     0.000
   NaH[14C]O[18O]2       5.239e-023  5.242e-023   -22.281   -22.281     0.000
   D[14C]O[18O]2-        1.321e-023  1.253e-023   -22.879   -22.902    -0.023
   CaD[14C]O2[18O]+      7.502e-024  7.125e-024   -23.125   -23.147    -0.022
   Na[14C]O[18O]2-       4.150e-024  3.938e-024   -23.382   -23.405    -0.023
   CaH[14C][18O]3+       1.861e-024  1.768e-024   -23.730   -23.753    -0.022
   NaD[14C]O2[18O]       1.313e-024  1.313e-024   -23.882   -23.882     0.000
   NaH[14C][18O]3        3.257e-025  3.259e-025   -24.487   -24.487     0.000
   [14C][18O]3-2         1.568e-025  1.271e-025   -24.805   -24.896    -0.091
   D[14C][18O]3-         8.211e-026  7.791e-026   -25.086   -25.108    -0.023
   Ca[14C][18O]3         5.915e-026  5.919e-026   -25.228   -25.228     0.000
   CaD[14C]O[18O]2+      4.664e-026  4.430e-026   -25.331   -25.354    -0.022
   NaD[14C]O[18O]2       8.160e-027  8.165e-027   -26.088   -26.088     0.000
   Na[14C][18O]3-        2.890e-027  2.743e-027   -26.539   -26.562    -0.023
   CaD[14C][18O]3+       2.899e-028  2.754e-028   -27.538   -27.560    -0.022
   NaD[14C][18O]3        5.073e-029  5.076e-029   -28.295   -28.295     0.000
[18O](-2)       1.114e-001
   H2[18O]               1.114e-001  2.001e-003    -0.953    -2.699    -1.746
   HD[18O]               3.470e-005  6.233e-007    -4.460    -6.205    -1.746
   HCO2[18O]-            1.147e-005  1.088e-005    -4.941    -4.963    -0.023
   H[13C]O2[18O]-        1.282e-007  1.217e-007    -6.892    -6.915    -0.023
   CO[18O]               1.151e-007  1.152e-007    -6.939    -6.939     0.000
   CO2[18O]-2            9.084e-008  7.364e-008    -7.042    -7.133    -0.091
   HCO[18O]2-            7.128e-008  6.764e-008    -7.147    -7.170    -0.023
   CaHCO2[18O]+          4.049e-008  3.846e-008    -7.393    -7.415    -0.022
   CaCO2[18O]            3.426e-008  3.428e-008    -7.465    -7.465     0.000
   NaHCO2[18O]           7.084e-009  7.088e-009    -8.150    -8.149     0.000
   [18O]H-               2.910e-009  2.760e-009    -8.536    -8.559    -0.023
   D2[18O]               2.703e-009  4.854e-011    -8.568   -10.314    -1.746
   DCO2[18O]-            1.786e-009  1.695e-009    -8.748    -8.771    -0.023
   NaCO2[18O]-           1.674e-009  1.589e-009    -8.776    -8.799    -0.023
   [13C]O[18O]           1.277e-009  1.277e-009    -8.894    -8.894     0.000
   [13C]O2[18O]-2        1.014e-009  8.223e-010    -8.994    -9.085    -0.091
   H[13C]O[18O]2-        7.971e-010  7.564e-010    -9.098    -9.121    -0.023
   CaH[13C]O2[18O]+      4.527e-010  4.300e-010    -9.344    -9.366    -0.022
   HC[18O]3-             4.431e-010  4.205e-010    -9.353    -9.376    -0.023
   Ca[13C]O2[18O]        3.826e-010  3.828e-010    -9.417    -9.417     0.000
   CaHCO[18O]2+          2.517e-010  2.391e-010    -9.599    -9.621    -0.022
   CO[18O]2-2            1.898e-010  1.539e-010    -9.722    -9.813    -0.091
   C[18O]2               1.203e-010  1.204e-010    -9.920    -9.919     0.000
   NaH[13C]O2[18O]       7.922e-011  7.926e-011   -10.101   -10.101     0.000
   CaCO[18O]2            7.160e-011  7.164e-011   -10.145   -10.145     0.000
   NaHCO[18O]2           4.404e-011  4.407e-011   -10.356   -10.356     0.000
   D[13C]O2[18O]-        1.997e-011  1.895e-011   -10.700   -10.722    -0.023
   Na[13C]O2[18O]-       1.870e-011  1.774e-011   -10.728   -10.751    -0.023
   H3[18O]+              1.502e-011  1.430e-011   -10.823   -10.845    -0.021
   DCO[18O]2-            1.110e-011  1.054e-011   -10.955   -10.977    -0.023
   CaDCO2[18O]+          6.306e-012  5.990e-012   -11.200   -11.223    -0.022
   H[13C][18O]3-         4.955e-012  4.702e-012   -11.305   -11.328    -0.023
   NaCO[18O]2-           3.498e-012  3.320e-012   -11.456   -11.479    -0.023
   CaH[13C]O[18O]2+      2.815e-012  2.673e-012   -11.551   -11.573    -0.022
   [13C]O[18O]2-2        2.120e-012  1.718e-012   -11.674   -11.765    -0.091
   CaHC[18O]3+           1.565e-012  1.486e-012   -11.806   -11.828    -0.022
   [13C][18O]2           1.334e-012  1.334e-012   -11.875   -11.875     0.000
   NaDCO2[18O]           1.103e-012  1.104e-012   -11.957   -11.957     0.000
   Ca[13C]O[18O]2        7.995e-013  7.999e-013   -12.097   -12.097     0.000
   NaH[13C]O[18O]2       4.925e-013  4.928e-013   -12.308   -12.307     0.000
   NaHC[18O]3            2.738e-013  2.739e-013   -12.563   -12.562     0.000
   C[18O]3-2             1.322e-013  1.072e-013   -12.879   -12.970    -0.091
   D[13C]O[18O]2-        1.242e-013  1.178e-013   -12.906   -12.929    -0.023
   [18O]D-               1.079e-013  1.024e-013   -12.967   -12.990    -0.023
   CaD[13C]O2[18O]+      7.052e-014  6.698e-014   -13.152   -13.174    -0.022
   DC[18O]3-             6.902e-014  6.549e-014   -13.161   -13.184    -0.023
   CaC[18O]3             4.987e-014  4.990e-014   -13.302   -13.302     0.000
   CaDCO[18O]2+          3.920e-014  3.724e-014   -13.407   -13.429    -0.022
   Na[13C]O[18O]2-       3.907e-014  3.707e-014   -13.408   -13.431    -0.023
   CaH[13C][18O]3+       1.750e-014  1.662e-014   -13.757   -13.779    -0.022
   NaD[13C]O2[18O]       1.234e-014  1.235e-014   -13.909   -13.908     0.000
   H2D[18O]+             7.312e-015  6.963e-015   -14.136   -14.157    -0.021
   NaDCO[18O]2           6.860e-015  6.864e-015   -14.164   -14.163     0.000
   NaH[13C][18O]3        3.062e-015  3.063e-015   -14.514   -14.514     0.000
   NaC[18O]3-            2.437e-015  2.312e-015   -14.613   -14.636    -0.023
   [13C][18O]3-2         1.476e-015  1.197e-015   -14.831   -14.922    -0.091
   D[13C][18O]3-         7.718e-016  7.324e-016   -15.112   -15.135    -0.023
   Ca[13C][18O]3         5.569e-016  5.572e-016   -15.254   -15.254     0.000
   CaD[13C]O[18O]2+      4.384e-016  4.164e-016   -15.358   -15.380    -0.022
   CaDC[18O]3+           2.437e-016  2.315e-016   -15.613   -15.635    -0.022
   NaD[13C]O[18O]2       7.671e-017  7.675e-017   -16.115   -16.115     0.000
   NaDC[18O]3            4.265e-017  4.267e-017   -16.370   -16.370     0.000
   Na[13C][18O]3-        2.721e-017  2.582e-017   -16.565   -16.588    -0.023
   H[14C]O2[18O]-        1.364e-017  1.294e-017   -16.865   -16.888    -0.023
   CaD[13C][18O]3+       2.725e-018  2.589e-018   -17.565   -17.587    -0.022
   HD2[18O]+             1.186e-018  1.130e-018   -17.926   -17.947    -0.021
   HT[18O]               1.114e-018  2.001e-020   -17.953   -19.699    -1.746
   NaD[13C][18O]3        4.769e-019  4.771e-019   -18.322   -18.321     0.000
   [14C]O[18O]           1.346e-019  1.347e-019   -18.871   -18.871     0.000
   [14C]O2[18O]-2        1.077e-019  8.735e-020   -18.968   -19.059    -0.091
   H[14C]O[18O]2-        8.480e-020  8.046e-020   -19.072   -19.094    -0.023
   CaH[14C]O2[18O]+      4.816e-020  4.575e-020   -19.317   -19.340    -0.022
   Ca[14C]O2[18O]        4.064e-020  4.066e-020   -19.391   -19.391     0.000
   NaH[14C]O2[18O]       8.427e-021  8.432e-021   -20.074   -20.074     0.000
   D[14C]O2[18O]-        2.125e-021  2.016e-021   -20.673   -20.696    -0.023
   Na[14C]O2[18O]-       1.986e-021  1.884e-021   -20.702   -20.725    -0.023
   H[14C][18O]3-         5.271e-022  5.002e-022   -21.278   -21.301    -0.023
   CaH[14C]O[18O]2+      2.994e-022  2.844e-022   -21.524   -21.546    -0.022
   [14C]O[18O]2-2        2.251e-022  1.825e-022   -21.648   -21.739    -0.091
   [14C][18O]2           1.407e-022  1.407e-022   -21.852   -21.852     0.000
   Ca[14C]O[18O]2        8.493e-023  8.497e-023   -22.071   -22.071     0.000
   D3[18O]+              6.416e-023  6.110e-023   -22.193   -22.214    -0.021
   TCO2[18O]-            5.734e-023  5.441e-023   -22.242   -22.264    -0.023
   NaH[14C]O[18O]2       5.239e-023  5.242e-023   -22.281   -22.281     0.000
   D[14C]O[18O]2-        1.321e-023  1.253e-023   -22.879   -22.902    -0.023
   CaD[14C]O2[18O]+      7.502e-024  7.125e-024   -23.125   -23.147    -0.022
   Na[14C]O[18O]2-       4.150e-024  3.938e-024   -23.382   -23.405    -0.023
   CaH[14C][18O]3+       1.861e-024  1.768e-024   -23.730   -23.753    -0.022
   NaD[14C]O2[18O]       1.313e-024  1.313e-024   -23.882   -23.882     0.000
   NaH[14C][18O]3        3.257e-025  3.259e-025   -24.487   -24.487     0.000
   CaTCO2[18O]+          2.025e-025  1.923e-025   -24.694   -24.716    -0.022
   [14C][18O]3-2         1.568e-025  1.271e-025   -24.805   -24.896    -0.091
   Ca[18O]H+             1.338e-025  1.269e-025   -24.874   -24.896    -0.023
   D[14C][18O]3-         8.211e-026  7.791e-026   -25.086   -25.108    -0.023
   Ca[14C][18O]3         5.915e-026  5.919e-026   -25.228   -25.228     0.000
   CaD[14C]O[18O]2+      4.664e-026  4.430e-026   -25.331   -25.354    -0.022
   NaTCO2[18O]           3.543e-026  3.545e-026   -25.451   -25.450     0.000
   Na[18O]H              2.111e-026  2.112e-026   -25.675   -25.675     0.000
   NaD[14C]O[18O]2       8.160e-027  8.165e-027   -26.088   -26.088     0.000
   Na[14C][18O]3-        2.890e-027  2.743e-027   -26.539   -26.562    -0.023
   [18O]T-               8.250e-028  7.825e-028   -27.084   -27.107    -0.023
   CaD[14C][18O]3+       2.899e-028  2.754e-028   -27.538   -27.560    -0.022
   H2T[18O]+             2.445e-028  2.329e-028   -27.612   -27.633    -0.021
   NaD[14C][18O]3        5.073e-029  5.076e-029   -28.295   -28.295     0.000
   Ca[18O]D+             4.961e-030  4.707e-030   -29.304   -29.327    -0.023
   Na[18O]D              7.830e-031  7.834e-031   -30.106   -30.106     0.000
   Ca[18O]T+             0.000e+000  0.000e+000   -43.421   -43.444    -0.023
   Na[18O]T              0.000e+000  0.000e+000   -44.223   -44.223     0.000
[18O](0)        0.000e+000
   O[18O]                0.000e+000  0.000e+000   -66.153   -66.153     0.000
   [18O]2                0.000e+000  0.000e+000   -69.142   -69.142     0.000

------------------------------Saturation indices-------------------------------

	Phase               SI log IAP  log KT

	[13C][18O]2(g)  -10.41  -11.87   -1.47  [13C][18O]2
	[13C]D4(g)      -39.05  -41.91   -2.86  [13C]D4
	[13C]H2D2(g)    -30.69  -33.55   -2.86  [13C]H2D2
	[13C]H3D(g)     -27.08  -29.94   -2.86  [13C]H3D
	[13C]H4(g)      -23.89  -26.75   -2.86  [13C]H4
	[13C]HD3(g)     -34.66  -37.52   -2.86  [13C]HD3
	[13C]O2(g)       -5.05   -6.51   -1.47  [13C]O2
	[13C]O[18O](g)   -7.43   -8.89   -1.47  [13C]O[18O]
	[14C][18O]2(g)  -20.38  -21.85   -1.47  [14C][18O]2
	[14C]O2(g)      -15.02  -16.49   -1.47  [14C]O2
	[14C]O[18O](g)  -17.40  -18.87   -1.47  [14C]O[18O]
	[18O]2(g)       -66.18  -69.14   -2.96  [18O]2
	C[18O]2(g)       -8.45   -9.92   -1.47  C[18O]2
	Ca[13C][18O]3   -10.02   -0.90    9.12  Ca[13C][18O]3
	Ca[13C]O2[18O]   -4.17    3.86    8.03  Ca[13C]O2[18O]
	Ca[13C]O3        -1.96    6.24    8.20  Ca[13C]O3
	Ca[13C]O[18O]2   -6.85    0.88    7.73  Ca[13C]O[18O]2
	Ca[14C][18O]3   -19.99  -10.88    9.11  Ca[14C][18O]3
	Ca[14C]O2[18O]  -14.14   -6.12    8.02  Ca[14C]O2[18O]
	Ca[14C]O3       -11.93   -3.74    8.19  Ca[14C]O3
	Ca[14C]O[18O]2  -16.82   -9.10    7.73  Ca[14C]O[18O]2
	CaC[18O]3        -8.07    1.06    9.12  CaC[18O]3
	CaCO2[18O]       -2.22    5.81    8.03  CaCO2[18O]
	CaCO[18O]2       -4.90    2.83    7.74  CaCO[18O]2
	Calcite          -0.01    8.19    8.20  CaCO3
	CD4(g)          -37.10  -39.96   -2.86  CD4
	CH2D2(g)        -28.74  -31.60   -2.86  CH2D2
	CH3D(g)         -25.13  -27.99   -2.86  CH3D
	CH4(g)          -21.94  -24.80   -2.86  CH4
	CHD3(g)         -32.71  -35.57   -2.86  CHD3
	CO2(g)           -3.09   -4.56   -1.47  CO2
	CO[18O](g)       -5.47   -6.94   -1.47  CO[18O]
	D2(g)           -18.74  -21.89   -3.15  D2
	D2[18O](g)      -11.89  -10.31    1.58  D2[18O]
	D2O(g)           -9.19   -7.62    1.58  D2O
	DTO(g)          -22.42  -20.81    1.61  DTO
	H2(g)           -11.16  -14.31   -3.15  H2
	H2[18O](g)       -4.21   -2.70    1.51  H2[18O]
	H2O(g)           -1.51   -0.00    1.51  H2O
	HD(g)           -14.65  -17.80   -3.15  HD
	HD[18O](g)       -7.75   -6.21    1.55  HD[18O]
	HDO(g)           -5.05   -3.51    1.54  HDO
	HT[18O](g)      -21.28  -19.70    1.58  HT[18O]
	HTO(g)          -18.58  -17.00    1.58  HTO
	O2(g)           -60.81  -63.77   -2.96  O2
	O[18O](g)       -63.19  -66.15   -2.96  O[18O]

------------------
End of simulation.
------------------

------------------------------------
Reading input data for simulation 3.
------------------------------------

-----------
End of run.
-----------

