   Input file: jgb2col
  Output file: jgb2col.out
Database file: ../database/phreeqc.dat

------------------
Reading data base.
------------------

	SOLUTION_MASTER_SPECIES
	SOLUTION_SPECIES
	PHASES
	EXCHANGE_MASTER_SPECIES
	EXCHANGE_SPECIES
	SURFACE_MASTER_SPECIES
	SURFACE_SPECIES
	RATES
	END
------------------------------------
Reading input data for simulation 1.
------------------------------------

	DATABASE ../database/phreeqc.dat
	knobs
		logfile
	PRINT
		status false
	SELECTED_OUTPUT
	        file comp3.flat
	        totals
	                Ca Fe
	        molalities
	                Ca+2
	        pure_phases
	                Calcite
	        si
	                Calcite
	SOLUTION 0
		ph	3.3
		temp	25
		units mmol/l
		Ca	11.6
		Mg	15.8
		Na	9.4
		K	0.2
	        Si      1.86
		Fe	52.4
		Mn	1.34
		Al	10.5
	        Cd      5.2e-6  mol/l
		Cu	2.4
	        Sr      1.5e-5  mol/l
		Zn	0.33
		S(6)	100 	charge
		Cl	9.5
	        F       1.6  
		C(4)	0.1	CO2(g)  -3.5
	SOLUTION 1-5
		ph	7.19
		temp	25
		units mmol/l
		O(0)	0.22
		Ca	1.2	charge
		Mg	0.37
		Na	0.96
		K	0.03
	        Si      0.40      
		Fe	3.5e-7	mol/l
		Mn	1.0e-7	mol/l
		Al	1.8e-6  mol/l
	        Cd      4.5e-9  mol/l
		Cu	1.5e-7	mol/l
	        Sr      2.7e-6  mol/l
		Zn	2.5e-7	mol/l
		S(6)	0.7
		Cl	0.48
	        F       1.58e-5 mol/l
		Alkalinity	2.3
	PURE_PHASES 1-5
		Calcite		0.0	0.075
	USE PURE_PHASES none
	ADVECTION
		cells		5
		shifts		25
		print_frequency	5
	END
-------------------------------------------
Beginning of initial solution calculations.
-------------------------------------------

Initial solution 0.	

-----------------------------Solution composition------------------------------

	Elements           Molality       Moles

	Al               1.066e-002  1.066e-002
	C(4)             1.028e-005  1.028e-005  Equilibrium with CO2(g)
	Ca               1.177e-002  1.177e-002
	Cd               5.277e-006  5.277e-006
	Cl               9.641e-003  9.641e-003
	Cu               2.436e-003  2.436e-003
	F                1.624e-003  1.624e-003
	Fe               5.318e-002  5.318e-002
	K                2.030e-004  2.030e-004
	Mg               1.603e-002  1.603e-002
	Mn               1.360e-003  1.360e-003
	Na               9.540e-003  9.540e-003
	S(6)             1.012e-001  1.012e-001  Charge balance
	Si               1.888e-003  1.888e-003
	Sr               1.522e-005  1.522e-005
	Zn               3.349e-004  3.349e-004

----------------------------Description of solution----------------------------

                                       pH  =   3.300    
                                       pe  =   4.000    
       Specific Conductance (uS/cm, 25 oC) = 9110
                          Density (g/cm3)  =   1.00992
                        Activity of water  =   0.997
                           Ionic strength  =  2.125e-001
                       Mass of water (kg)  =  1.000e+000
                 Total alkalinity (eq/kg)  = -1.685e-003
                       Total CO2 (mol/kg)  =  1.028e-005
                      Temperature (deg C)  =  25.000
                  Electrical balance (eq)  = -2.874e-018
 Percent error, 100*(Cat-|An|)/(Cat+|An|)  =  -0.00
                               Iterations  =  10
                                  Total H  = 1.110217e+002
                                  Total O  = 5.591853e+001

----------------------------Distribution of species----------------------------

                                                   Log       Log         Log 
   Species                 Molality    Activity  Molality  Activity     Gamma

   H+                    6.301e-004  5.012e-004    -3.201    -3.300    -0.099
   OH-                   2.836e-011  1.992e-011   -10.547   -10.701    -0.153
   H2O                   5.551e+001  9.971e-001     1.744    -0.001     0.000
Al              1.066e-002
   AlSO4+                5.794e-003  4.313e-003    -2.237    -2.365    -0.128
   Al(SO4)2-             2.605e-003  1.939e-003    -2.584    -2.712    -0.128
   AlF+2                 1.372e-003  4.212e-004    -2.863    -3.376    -0.513
   Al+3                  7.525e-004  9.593e-005    -3.123    -4.018    -0.895
   AlF2+                 1.245e-004  9.268e-005    -3.905    -4.033    -0.128
   AlOH+2                6.176e-006  1.896e-006    -5.209    -5.722    -0.513
   AlHSO4+2              6.244e-007  1.917e-007    -6.205    -6.717    -0.513
   AlF3                  4.878e-007  5.123e-007    -6.312    -6.290     0.021
   Al(OH)2+              3.972e-008  2.956e-008    -7.401    -7.529    -0.128
   AlF4-                 1.203e-010  8.954e-011    -9.920   -10.048    -0.128
   Al(OH)3               8.252e-012  8.666e-012   -11.083   -11.062     0.021
   Al(OH)4-              4.366e-014  3.250e-014   -13.360   -13.488    -0.128
   AlF5-2                2.030e-015  6.231e-016   -14.693   -15.205    -0.513
   AlF6-3                3.901e-021  2.736e-022   -20.409   -21.563    -1.154
C(4)            1.028e-005
   CO2                   1.025e-005  1.077e-005    -4.989    -4.968     0.021
   HCO3-                 1.283e-008  9.527e-009    -7.892    -8.021    -0.129
   FeHCO3+               1.229e-008  9.150e-009    -7.910    -8.039    -0.128
   MgHCO3+               3.921e-010  2.918e-010    -9.407    -9.535    -0.128
   CaHCO3+               3.281e-010  2.437e-010    -9.484    -9.613    -0.129
   MnHCO3+               2.795e-010  2.080e-010    -9.554    -9.682    -0.128
   ZnHCO3+               6.850e-011  5.099e-011   -10.164   -10.293    -0.128
   NaHCO3                3.366e-011  3.535e-011   -10.473   -10.452     0.021
   SrHCO3+               5.166e-013  3.837e-013   -12.287   -12.416    -0.129
   CdHCO3+               2.110e-013  1.570e-013   -12.676   -12.804    -0.128
   FeCO3                 1.956e-013  2.054e-013   -12.709   -12.687     0.021
   MnCO3                 1.652e-014  1.735e-014   -13.782   -13.761     0.021
   ZnCO3                 7.201e-015  7.562e-015   -14.143   -14.121     0.021
   CO3-2                 2.930e-015  8.915e-016   -14.533   -15.050    -0.517
   CaCO3                 2.859e-015  3.003e-015   -14.544   -14.522     0.021
   MgCO3                 2.121e-015  2.227e-015   -14.674   -14.652     0.021
   NaCO3-                1.472e-016  1.095e-016   -15.832   -15.960    -0.128
   SrCO3                 1.427e-018  1.498e-018   -17.846   -17.824     0.021
   CdCO3                 3.514e-019  3.691e-019   -18.454   -18.433     0.021
   Zn(CO3)2-2            4.695e-025  1.441e-025   -24.328   -24.841    -0.513
   Cd(CO3)2-2            3.389e-030  1.040e-030   -29.470   -29.983    -0.513
Ca              1.177e-002
   Ca+2                  6.334e-003  2.005e-003    -2.198    -2.698    -0.500
   CaSO4                 5.416e-003  5.688e-003    -2.266    -2.245     0.021
   CaHSO4+               2.244e-005  1.670e-005    -4.649    -4.777    -0.128
   CaF+                  1.030e-008  7.667e-009    -7.987    -8.115    -0.128
   CaHCO3+               3.281e-010  2.437e-010    -9.484    -9.613    -0.129
   CaOH+                 8.894e-013  6.620e-013   -12.051   -12.179    -0.128
   CaCO3                 2.859e-015  3.003e-015   -14.544   -14.522     0.021
Cd              5.277e-006
   CdSO4                 2.035e-006  2.137e-006    -5.691    -5.670     0.021
   Cd+2                  1.698e-006  5.212e-007    -5.770    -6.283    -0.513
   Cd(SO4)2-2            1.085e-006  3.331e-007    -5.964    -6.477    -0.513
   CdCl+                 4.499e-007  3.349e-007    -6.347    -6.475    -0.128
   CdCl2                 8.945e-009  9.393e-009    -8.048    -8.027     0.021
   CdCl3-                5.357e-011  3.988e-011   -10.271   -10.399    -0.128
   CdHCO3+               2.110e-013  1.570e-013   -12.676   -12.804    -0.128
   CdOH+                 1.159e-013  8.625e-014   -12.936   -13.064    -0.128
   CdCO3                 3.514e-019  3.691e-019   -18.454   -18.433     0.021
   Cd(OH)2               8.775e-021  9.215e-021   -20.057   -20.035     0.021
   Cd(CO3)2-2            3.389e-030  1.040e-030   -29.470   -29.983    -0.513
   Cd(OH)3-              2.764e-030  2.057e-030   -29.559   -29.687    -0.128
   Cd(OH)4-2             1.188e-040  0.000e+000   -39.925   -40.438    -0.513
Cl              9.641e-003
   Cl-                   9.511e-003  6.728e-003    -2.022    -2.172    -0.150
   FeCl+                 1.198e-004  8.920e-005    -3.921    -4.050    -0.128
   MnCl+                 9.022e-006  6.716e-006    -5.045    -5.173    -0.128
   ZnCl+                 1.034e-006  7.699e-007    -5.985    -6.114    -0.128
   CdCl+                 4.499e-007  3.349e-007    -6.347    -6.475    -0.128
   MnCl2                 1.878e-008  1.972e-008    -7.726    -7.705     0.021
   CdCl2                 8.945e-009  9.393e-009    -8.048    -8.027     0.021
   ZnCl2                 5.165e-009  5.424e-009    -8.287    -8.266     0.021
   ZnCl3-                5.502e-011  4.095e-011   -10.260   -10.388    -0.128
   CdCl3-                5.357e-011  3.988e-011   -10.271   -10.399    -0.128
   MnCl3-                4.911e-011  3.655e-011   -10.309   -10.437    -0.128
   FeCl+2                6.071e-012  1.864e-012   -11.217   -11.730    -0.513
   ZnCl4-2               4.499e-013  1.381e-013   -12.347   -12.860    -0.513
   FeCl2+                7.525e-014  5.601e-014   -13.124   -13.252    -0.128
   FeCl3                 3.589e-017  3.769e-017   -16.445   -16.424     0.021
Cu(1)           3.181e-005
   Cu+                   3.181e-005  2.149e-005    -4.497    -4.668    -0.170
Cu(2)           2.404e-003
   Cu+2                  1.272e-003  4.095e-004    -2.896    -3.388    -0.492
   CuSO4                 1.132e-003  1.189e-003    -2.946    -2.925     0.021
   CuOH+                 1.141e-008  8.147e-009    -7.943    -8.089    -0.146
   Cu(OH)2               3.225e-011  3.387e-011   -10.491   -10.470     0.021
   Cu(OH)3-              5.454e-021  4.060e-021   -20.263   -20.391    -0.128
   Cu(OH)4-2             5.251e-030  1.612e-030   -29.280   -29.793    -0.513
F               1.624e-003
   AlF+2                 1.372e-003  4.212e-004    -2.863    -3.376    -0.513
   AlF2+                 1.245e-004  9.268e-005    -3.905    -4.033    -0.128
   F-                    6.252e-007  4.391e-007    -6.204    -6.357    -0.153
   AlF3                  4.878e-007  5.123e-007    -6.312    -6.290     0.021
   HF                    3.143e-007  3.300e-007    -6.503    -6.481     0.021
   MgF+                  1.020e-007  7.594e-008    -6.991    -7.120    -0.128
   FeF+                  5.665e-008  4.217e-008    -7.247    -7.375    -0.128
   CaF+                  1.030e-008  7.667e-009    -7.987    -8.115    -0.128
   NaF                   1.588e-009  1.667e-009    -8.799    -8.778     0.021
   MnF+                  9.998e-010  7.442e-010    -9.000    -9.128    -0.128
   AlF4-                 1.203e-010  8.954e-011    -9.920   -10.048    -0.128
   FeF+2                 2.079e-011  6.382e-012   -10.682   -11.195    -0.513
   HF2-                  7.469e-013  5.559e-013   -12.127   -12.255    -0.128
   FeF2+                 1.499e-013  1.116e-013   -12.824   -12.953    -0.128
   AlF5-2                2.030e-015  6.231e-016   -14.693   -15.205    -0.513
   FeF3                  7.392e-017  7.762e-017   -16.131   -16.110     0.021
   AlF6-3                3.901e-021  2.736e-022   -20.409   -21.563    -1.154
   SiF6-2                4.469e-024  1.372e-024   -23.350   -23.863    -0.513
Fe(2)           5.318e-002
   Fe+2                  2.983e-002  9.604e-003    -1.525    -2.018    -0.492
   FeSO4                 2.312e-002  2.428e-002    -1.636    -1.615     0.021
   FeCl+                 1.198e-004  8.920e-005    -3.921    -4.050    -0.128
   FeHSO4+               1.075e-004  7.999e-005    -3.969    -4.097    -0.128
   FeF+                  5.665e-008  4.217e-008    -7.247    -7.375    -0.128
   FeHCO3+               1.229e-008  9.150e-009    -7.910    -8.039    -0.128
   FeOH+                 8.118e-009  6.042e-009    -8.091    -8.219    -0.128
   FeCO3                 1.956e-013  2.054e-013   -12.709   -12.687     0.021
Fe(3)           3.112e-009
   FeSO4+                1.921e-009  1.430e-009    -8.717    -8.845    -0.128
   Fe(SO4)2-             5.975e-010  4.447e-010    -9.224    -9.352    -0.128
   FeOH+2                3.838e-010  1.178e-010    -9.416    -9.929    -0.513
   Fe(OH)2+              1.043e-010  7.762e-011    -9.982   -10.110    -0.128
   Fe+3                  7.195e-011  9.172e-012   -10.143   -11.038    -0.895
   FeF+2                 2.079e-011  6.382e-012   -10.682   -11.195    -0.513
   FeHSO4+2              6.251e-012  1.919e-012   -11.204   -11.717    -0.513
   FeCl+2                6.071e-012  1.864e-012   -11.217   -11.730    -0.513
   FeF2+                 1.499e-013  1.116e-013   -12.824   -12.953    -0.128
   FeCl2+                7.525e-014  5.601e-014   -13.124   -13.252    -0.128
   Fe(OH)3               1.894e-014  1.989e-014   -13.723   -13.701     0.021
   FeF3                  7.392e-017  7.762e-017   -16.131   -16.110     0.021
   Fe2(OH)2+4            4.209e-017  3.736e-019   -16.376   -18.428    -2.052
   FeCl3                 3.589e-017  3.769e-017   -16.445   -16.424     0.021
   Fe(OH)4-              4.850e-020  3.610e-020   -19.314   -19.443    -0.128
   Fe3(OH)4+5            9.732e-024  6.058e-027   -23.012   -26.218    -3.206
H(0)            3.387e-018
   H2                    1.693e-018  1.778e-018   -17.771   -17.750     0.021
K               2.030e-004
   K+                    1.854e-004  1.311e-004    -3.732    -3.882    -0.150
   KSO4-                 1.760e-005  1.310e-005    -4.754    -4.883    -0.128
   KOH                   8.615e-016  9.047e-016   -15.065   -15.044     0.021
Mg              1.603e-002
   MgSO4                 8.308e-003  8.725e-003    -2.080    -2.059     0.021
   Mg+2                  7.726e-003  2.618e-003    -2.112    -2.582    -0.470
   MgF+                  1.020e-007  7.594e-008    -6.991    -7.120    -0.128
   MgHCO3+               3.921e-010  2.918e-010    -9.407    -9.535    -0.128
   MgOH+                 2.541e-011  1.891e-011   -10.595   -10.723    -0.128
   MgCO3                 2.121e-015  2.227e-015   -14.674   -14.652     0.021
Mn(2)           1.360e-003
   Mn+2                  7.610e-004  2.450e-004    -3.119    -3.611    -0.492
   MnSO4                 5.899e-004  6.194e-004    -3.229    -3.208     0.021
   MnCl+                 9.022e-006  6.716e-006    -5.045    -5.173    -0.128
   MnCl2                 1.878e-008  1.972e-008    -7.726    -7.705     0.021
   MnF+                  9.998e-010  7.442e-010    -9.000    -9.128    -0.128
   MnHCO3+               2.795e-010  2.080e-010    -9.554    -9.682    -0.128
   MnCl3-                4.911e-011  3.655e-011   -10.309   -10.437    -0.128
   MnOH+                 1.683e-011  1.253e-011   -10.774   -10.902    -0.128
   MnCO3                 1.652e-014  1.735e-014   -13.782   -13.761     0.021
Mn(3)           1.080e-024
   Mn+3                  1.080e-024  7.572e-026   -23.967   -25.121    -1.154
Na              9.540e-003
   Na+                   8.908e-003  6.599e-003    -2.050    -2.181    -0.130
   NaSO4-                6.317e-004  4.702e-004    -3.199    -3.328    -0.128
   NaF                   1.588e-009  1.667e-009    -8.799    -8.778     0.021
   NaHCO3                3.366e-011  3.535e-011   -10.473   -10.452     0.021
   NaOH                  8.260e-014  8.674e-014   -13.083   -13.062     0.021
   NaCO3-                1.472e-016  1.095e-016   -15.832   -15.960    -0.128
O(0)            0.000e+000
   O2                    0.000e+000  0.000e+000   -56.904   -56.882     0.021
S(6)            1.012e-001
   SO4-2                 4.965e-002  1.422e-002    -1.304    -1.847    -0.543
   FeSO4                 2.312e-002  2.428e-002    -1.636    -1.615     0.021
   MgSO4                 8.308e-003  8.725e-003    -2.080    -2.059     0.021
   AlSO4+                5.794e-003  4.313e-003    -2.237    -2.365    -0.128
   CaSO4                 5.416e-003  5.688e-003    -2.266    -2.245     0.021
   Al(SO4)2-             2.605e-003  1.939e-003    -2.584    -2.712    -0.128
   CuSO4                 1.132e-003  1.189e-003    -2.946    -2.925     0.021
   HSO4-                 9.307e-004  6.928e-004    -3.031    -3.159    -0.128
   NaSO4-                6.317e-004  4.702e-004    -3.199    -3.328    -0.128
   MnSO4                 5.899e-004  6.194e-004    -3.229    -3.208     0.021
   ZnSO4                 1.349e-004  1.417e-004    -3.870    -3.849     0.021
   FeHSO4+               1.075e-004  7.999e-005    -3.969    -4.097    -0.128
   Zn(SO4)2-2            5.334e-005  1.637e-005    -4.273    -4.786    -0.513
   CaHSO4+               2.244e-005  1.670e-005    -4.649    -4.777    -0.128
   KSO4-                 1.760e-005  1.310e-005    -4.754    -4.883    -0.128
   SrSO4                 6.950e-006  7.299e-006    -5.158    -5.137     0.021
   CdSO4                 2.035e-006  2.137e-006    -5.691    -5.670     0.021
   Cd(SO4)2-2            1.085e-006  3.331e-007    -5.964    -6.477    -0.513
   AlHSO4+2              6.244e-007  1.917e-007    -6.205    -6.717    -0.513
   FeSO4+                1.921e-009  1.430e-009    -8.717    -8.845    -0.128
   Fe(SO4)2-             5.975e-010  4.447e-010    -9.224    -9.352    -0.128
   FeHSO4+2              6.251e-012  1.919e-012   -11.204   -11.717    -0.513
Si              1.888e-003
   H4SiO4                1.888e-003  1.982e-003    -2.724    -2.703     0.021
   H3SiO4-               7.835e-010  5.832e-010    -9.106    -9.234    -0.128
   H2SiO4-2              2.579e-019  7.915e-020   -18.589   -19.102    -0.513
   SiF6-2                4.469e-024  1.372e-024   -23.350   -23.863    -0.513
Sr              1.522e-005
   Sr+2                  8.272e-006  2.633e-006    -5.082    -5.580    -0.497
   SrSO4                 6.950e-006  7.299e-006    -5.158    -5.137     0.021
   SrHCO3+               5.166e-013  3.837e-013   -12.287   -12.416    -0.129
   SrOH+                 3.655e-016  2.687e-016   -15.437   -15.571    -0.134
   SrCO3                 1.427e-018  1.498e-018   -17.846   -17.824     0.021
Zn              3.349e-004
   Zn+2                  1.456e-004  4.251e-005    -3.837    -4.371    -0.535
   ZnSO4                 1.349e-004  1.417e-004    -3.870    -3.849     0.021
   Zn(SO4)2-2            5.334e-005  1.637e-005    -4.273    -4.786    -0.513
   ZnCl+                 1.034e-006  7.699e-007    -5.985    -6.114    -0.128
   ZnCl2                 5.165e-009  5.424e-009    -8.287    -8.266     0.021
   ZnOH+                 1.246e-010  9.274e-011    -9.904   -10.033    -0.128
   ZnHCO3+               6.850e-011  5.099e-011   -10.164   -10.293    -0.128
   ZnCl3-                5.502e-011  4.095e-011   -10.260   -10.388    -0.128
   ZnCl4-2               4.499e-013  1.381e-013   -12.347   -12.860    -0.513
   ZnCO3                 7.201e-015  7.562e-015   -14.143   -14.121     0.021
   Zn(OH)2               2.017e-015  2.119e-015   -14.695   -14.674     0.021
   Zn(OH)3-              1.791e-023  1.333e-023   -22.747   -22.875    -0.128
   Zn(CO3)2-2            4.695e-025  1.441e-025   -24.328   -24.841    -0.513
   Zn(OH)4-2             1.369e-032  4.203e-033   -31.864   -32.376    -0.513

------------------------------Saturation indices-------------------------------

	Phase               SI log IAP  log KT

	Al(OH)3(a)       -4.92    5.88   10.80  Al(OH)3
	Albite           -5.77  -23.77  -18.00  NaAlSi3O8
	Alunite           1.56    0.16   -1.40  KAl3(SO4)2(OH)6
	Anhydrite        -0.18   -4.55   -4.36  CaSO4
	Anorthite       -15.36  -35.07  -19.71  CaAl2Si2O8
	Aragonite        -9.41  -17.75   -8.34  CaCO3
	Ca-Montmorillonite  -3.35  -48.38  -45.03  Ca0.165Al2.33Si3.67O10(OH)2
	Calcite          -9.27  -17.75   -8.48  CaCO3
	Cd(OH)2         -13.34    0.31   13.65  Cd(OH)2
	CdSiO3          -11.44   -2.38    9.06  CdSiO3
	CdSO4            -8.03   -8.13   -0.10  CdSO4
	Celestite        -0.79   -7.43   -6.63  SrSO4
	Chalcedony        0.85   -2.70   -3.55  SiO2
	Chlorite(14A)   -44.64   23.74   68.38  Mg5Al2Si3O10(OH)8
	Chrysotile      -25.55    6.65   32.20  Mg3Si2O5(OH)4
	CO2(g)           -3.50   -4.97   -1.47  CO2
	Dolomite        -18.29  -35.38  -17.09  CaMg(CO3)2
	Fe(OH)3(a)       -6.03   -1.14    4.89  Fe(OH)3
	Fluorite         -4.81  -15.41  -10.60  CaF2
	Gibbsite         -2.23    5.88    8.11  Al(OH)3
	Goethite         -0.14   -1.14   -1.00  FeOOH
	Gypsum            0.03   -4.55   -4.58  CaSO4:2H2O
	H2(g)           -14.60  -17.75   -3.15  H2
	H2O(g)           -1.51   -0.00    1.51  H2O
	Halite           -5.93   -4.35    1.58  NaCl
	Hausmannite     -37.47   23.56   61.03  Mn3O4
	Hematite          1.73   -2.28   -4.01  Fe2O3
	Illite           -7.14  -47.40  -40.27  K0.6Mg0.25Al2.3Si3.5O10(OH)2
	Jarosite-K      -11.69  -20.90   -9.21  KFe3(SO4)2(OH)6
	K-feldspar       -4.90  -25.47  -20.57  KAlSi3O8
	K-mica           -3.75    8.96   12.70  KAl3Si3O10(OH)2
	Kaolinite        -1.08    6.36    7.43  Al2Si2O5(OH)4
	Manganite       -15.05   10.29   25.34  MnOOH
	Melanterite      -1.66   -3.87   -2.21  FeSO4:7H2O
	O2(g)           -53.99  -56.88   -2.89  O2
	Otavite          -9.23  -21.33  -12.10  CdCO3
	Pyrochroite     -12.21    2.99   15.20  Mn(OH)2
	Pyrolusite      -23.79   17.59   41.38  MnO2
	Quartz            1.28   -2.70   -3.98  SiO2
	Rhodochrosite    -7.53  -18.66  -11.13  MnCO3
	Sepiolite       -15.83   -0.07   15.76  Mg2Si3O7.5OH:3H2O
	Sepiolite(d)    -18.73   -0.07   18.66  Mg2Si3O7.5OH:3H2O
	Siderite         -6.18  -17.07  -10.89  FeCO3
	SiO2(a)           0.01   -2.70   -2.71  SiO2
	Smithsonite      -9.42  -19.42  -10.00  ZnCO3
	Strontianite    -11.36  -20.63   -9.27  SrCO3
	Talc            -20.15    1.25   21.40  Mg3Si4O10(OH)2
	Willemite       -13.58    1.75   15.33  Zn2SiO4
	Zn(OH)2(e)       -9.27    2.23   11.50  Zn(OH)2

Initial solution 1.	

-----------------------------Solution composition------------------------------

	Elements           Molality       Moles

	Al               1.801e-006  1.801e-006
	Alkalinity       2.301e-003  2.301e-003
	Ca               1.227e-003  1.227e-003  Charge balance
	Cd               4.501e-009  4.501e-009
	Cl               4.801e-004  4.801e-004
	Cu               1.500e-007  1.500e-007
	F                1.580e-005  1.580e-005
	Fe               3.501e-007  3.501e-007
	K                3.001e-005  3.001e-005
	Mg               3.701e-004  3.701e-004
	Mn               1.000e-007  1.000e-007
	Na               9.603e-004  9.603e-004
	O(0)             2.201e-004  2.201e-004
	S(6)             7.002e-004  7.002e-004
	Si               4.001e-004  4.001e-004
	Sr               2.701e-006  2.701e-006
	Zn               2.501e-007  2.501e-007

----------------------------Description of solution----------------------------

                                       pH  =   7.190    
                                       pe  =   4.000    
       Specific Conductance (uS/cm, 25 oC) = 413
                          Density (g/cm3)  =   0.99731
                        Activity of water  =   1.000
                           Ionic strength  =  6.035e-003
                       Mass of water (kg)  =  1.000e+000
                    Total carbon (mol/kg)  =  2.589e-003
                       Total CO2 (mol/kg)  =  2.589e-003
                      Temperature (deg C)  =  25.000
                  Electrical balance (eq)  =  1.595e-011
 Percent error, 100*(Cat-|An|)/(Cat+|An|)  =   0.00
                               Iterations  =   9
                                  Total H  = 1.110163e+002
                                  Total O  = 5.551831e+001

---------------------------------Redox couples---------------------------------

	Redox couple             pe  Eh (volts)

	O(-2)/O(0)          13.3406      0.7892

----------------------------Distribution of species----------------------------

                                                   Log       Log         Log 
   Species                 Molality    Activity  Molality  Activity     Gamma

   OH-                   1.686e-007  1.550e-007    -6.773    -6.810    -0.036
   H+                    6.953e-008  6.457e-008    -7.158    -7.190    -0.032
   H2O                   5.551e+001  9.999e-001     1.744    -0.000     0.000
Al              1.801e-006
   Al(OH)4-              1.718e-006  1.583e-006    -5.765    -5.801    -0.036
   Al(OH)3               5.414e-008  5.422e-008    -7.266    -7.266     0.001
   Al(OH)2+              2.580e-008  2.376e-008    -7.588    -7.624    -0.036
   AlF2+                 1.395e-009  1.285e-009    -8.855    -8.891    -0.036
   AlOH+2                2.722e-010  1.958e-010    -9.565    -9.708    -0.143
   AlF+2                 2.512e-010  1.806e-010    -9.600    -9.743    -0.143
   AlF3                  2.293e-010  2.296e-010    -9.640    -9.639     0.001
   Al+3                  2.479e-012  1.273e-012   -11.606   -11.895    -0.290
   AlSO4+                1.902e-012  1.752e-012   -11.721   -11.757    -0.036
   AlF4-                 1.409e-012  1.297e-012   -11.851   -11.887    -0.036
   Al(SO4)2-             2.618e-014  2.411e-014   -13.582   -13.618    -0.036
   AlF5-2                4.058e-016  2.919e-016   -15.392   -15.535    -0.143
   AlHSO4+2              1.394e-020  1.003e-020   -19.856   -19.999    -0.143
   AlF6-3                8.697e-021  4.142e-021   -20.061   -20.383    -0.322
C(4)            2.589e-003
   HCO3-                 2.252e-003  2.079e-003    -2.647    -2.682    -0.035
   CO2                   3.013e-004  3.018e-004    -3.521    -3.520     0.001
   CaHCO3+               2.356e-005  2.174e-005    -4.628    -4.663    -0.035
   MgHCO3+               6.501e-006  5.987e-006    -5.187    -5.223    -0.036
   CO3-2                 2.080e-006  1.510e-006    -5.682    -5.821    -0.139
   CaCO3                 2.077e-006  2.080e-006    -5.683    -5.682     0.001
   NaHCO3                1.030e-006  1.031e-006    -5.987    -5.987     0.001
   MgCO3                 3.541e-007  3.546e-007    -6.451    -6.450     0.001
   SrHCO3+               6.215e-008  5.737e-008    -7.207    -7.241    -0.035
   ZnCO3                 3.573e-008  3.578e-008    -7.447    -7.446     0.001
   ZnHCO3+               3.375e-008  3.108e-008    -7.472    -7.507    -0.036
   NaCO3-                2.693e-008  2.480e-008    -7.570    -7.606    -0.036
   FeHCO3+               2.439e-008  2.246e-008    -7.613    -7.649    -0.036
   MnHCO3+               1.135e-008  1.046e-008    -7.945    -7.981    -0.036
   MnCO3                 6.759e-009  6.768e-009    -8.170    -8.170     0.001
   FeCO3                 3.909e-009  3.914e-009    -8.408    -8.407     0.001
   SrCO3                 1.737e-009  1.739e-009    -8.760    -8.760     0.001
   Zn(CO3)2-2            1.606e-009  1.155e-009    -8.794    -8.937    -0.143
   CdHCO3+               1.963e-010  1.808e-010    -9.707    -9.743    -0.036
   CdCO3                 3.294e-012  3.299e-012   -11.482   -11.482     0.001
   Cd(CO3)2-2            2.190e-014  1.575e-014   -13.660   -13.803    -0.143
Ca              1.227e-003
   Ca+2                  1.130e-003  8.200e-004    -2.947    -3.086    -0.139
   CaSO4                 7.111e-005  7.121e-005    -4.148    -4.147     0.001
   CaHCO3+               2.356e-005  2.174e-005    -4.628    -4.663    -0.035
   CaCO3                 2.077e-006  2.080e-006    -5.683    -5.682     0.001
   CaF+                  1.101e-007  1.014e-007    -6.958    -6.994    -0.036
   CaOH+                 2.288e-009  2.107e-009    -8.640    -8.676    -0.036
   CaHSO4+               2.925e-011  2.694e-011   -10.534   -10.570    -0.036
Cd              4.501e-009
   Cd+2                  3.825e-009  2.751e-009    -8.417    -8.561    -0.143
   CdSO4                 3.448e-010  3.453e-010    -9.462    -9.462     0.001
   CdHCO3+               1.963e-010  1.808e-010    -9.707    -9.743    -0.036
   CdCl+                 1.260e-010  1.160e-010    -9.900    -9.935    -0.036
   CdOH+                 3.847e-012  3.543e-012   -11.415   -11.451    -0.036
   CdCO3                 3.294e-012  3.299e-012   -11.482   -11.482     0.001
   Cd(SO4)2-2            2.291e-012  1.648e-012   -11.640   -11.783    -0.143
   CdCl2                 2.134e-013  2.137e-013   -12.671   -12.670     0.001
   Cd(CO3)2-2            2.190e-014  1.575e-014   -13.660   -13.803    -0.143
   Cd(OH)2               2.943e-015  2.947e-015   -14.531   -14.531     0.001
   CdCl3-                6.466e-017  5.955e-017   -16.189   -16.225    -0.036
   Cd(OH)3-              5.560e-021  5.120e-021   -20.255   -20.291    -0.036
   Cd(OH)4-2             9.826e-028  7.067e-028   -27.008   -27.151    -0.143
Cl              4.801e-004
   Cl-                   4.801e-004  4.417e-004    -3.319    -3.355    -0.036
   ZnCl+                 1.534e-010  1.412e-010    -9.814    -9.850    -0.036
   CdCl+                 1.260e-010  1.160e-010    -9.900    -9.935    -0.036
   MnCl+                 1.103e-010  1.016e-010    -9.957    -9.993    -0.036
   FeCl+                 7.156e-011  6.590e-011   -10.145   -10.181    -0.036
   CdCl2                 2.134e-013  2.137e-013   -12.671   -12.670     0.001
   ZnCl2                 6.523e-014  6.532e-014   -13.186   -13.185     0.001
   MnCl2                 1.955e-014  1.958e-014   -13.709   -13.708     0.001
   CdCl3-                6.466e-017  5.955e-017   -16.189   -16.225    -0.036
   ZnCl3-                3.516e-017  3.238e-017   -16.454   -16.490    -0.036
   MnCl3-                2.587e-018  2.382e-018   -17.587   -17.623    -0.036
   FeCl+2                1.914e-018  1.377e-018   -17.718   -17.861    -0.143
   ZnCl4-2               9.966e-021  7.167e-021   -20.001   -20.145    -0.143
   FeCl2+                2.950e-021  2.717e-021   -20.530   -20.566    -0.036
   FeCl3                 1.198e-025  1.200e-025   -24.921   -24.921     0.001
Cu(1)           1.282e-009
   Cu+                   1.282e-009  1.177e-009    -8.892    -8.929    -0.037
Cu(2)           1.488e-007
   Cu(OH)2               1.122e-007  1.124e-007    -6.950    -6.949     0.001
   Cu+2                  3.077e-008  2.243e-008    -7.512    -7.649    -0.137
   CuOH+                 3.773e-009  3.474e-009    -8.423    -8.459    -0.036
   CuSO4                 1.991e-009  1.993e-009    -8.701    -8.700     0.001
   Cu(OH)3-              1.139e-013  1.049e-013   -12.944   -12.979    -0.036
   Cu(OH)4-2             4.506e-019  3.241e-019   -18.346   -18.489    -0.143
F               1.580e-005
   F-                    1.543e-005  1.419e-005    -4.812    -4.848    -0.036
   MgF+                  2.507e-007  2.308e-007    -6.601    -6.637    -0.036
   CaF+                  1.101e-007  1.014e-007    -6.958    -6.994    -0.036
   NaF                   7.195e-009  7.205e-009    -8.143    -8.142     0.001
   AlF2+                 1.395e-009  1.285e-009    -8.855    -8.891    -0.036
   HF                    1.372e-009  1.374e-009    -8.862    -8.862     0.001
   AlF+2                 2.512e-010  1.806e-010    -9.600    -9.743    -0.143
   AlF3                  2.293e-010  2.296e-010    -9.640    -9.639     0.001
   FeF+                  1.666e-011  1.534e-011   -10.778   -10.814    -0.036
   MnF+                  6.018e-012  5.542e-012   -11.221   -11.256    -0.036
   AlF4-                 1.409e-012  1.297e-012   -11.851   -11.887    -0.036
   HF2-                  8.128e-014  7.485e-014   -13.090   -13.126    -0.036
   FeF+2                 3.228e-015  2.322e-015   -14.491   -14.634    -0.143
   FeF2+                 1.425e-015  1.312e-015   -14.846   -14.882    -0.036
   AlF5-2                4.058e-016  2.919e-016   -15.392   -15.535    -0.143
   FeF3                  2.947e-017  2.951e-017   -16.531   -16.530     0.001
   AlF6-3                8.697e-021  4.142e-021   -20.061   -20.383    -0.322
   SiF6-2                1.196e-031  8.600e-032   -30.922   -31.066    -0.143
Fe(2)           1.856e-007
   Fe+2                  1.483e-007  1.081e-007    -6.829    -6.966    -0.137
   FeHCO3+               2.439e-008  2.246e-008    -7.613    -7.649    -0.036
   FeSO4                 8.354e-009  8.365e-009    -8.078    -8.078     0.001
   FeCO3                 3.909e-009  3.914e-009    -8.408    -8.407     0.001
   FeOH+                 5.748e-010  5.293e-010    -9.241    -9.276    -0.036
   FeCl+                 7.156e-011  6.590e-011   -10.145   -10.181    -0.036
   FeF+                  1.666e-011  1.534e-011   -10.778   -10.814    -0.036
   FeHSO4+               3.855e-015  3.550e-015   -14.414   -14.450    -0.036
Fe(3)           1.645e-007
   Fe(OH)3               1.054e-007  1.056e-007    -6.977    -6.976     0.001
   Fe(OH)2+              5.747e-008  5.292e-008    -7.241    -7.276    -0.036
   Fe(OH)4-              1.619e-009  1.491e-009    -8.791    -8.826    -0.036
   FeOH+2                1.435e-011  1.032e-011   -10.843   -10.986    -0.143
   FeF+2                 3.228e-015  2.322e-015   -14.491   -14.634    -0.143
   FeF2+                 1.425e-015  1.312e-015   -14.846   -14.882    -0.036
   FeSO4+                5.349e-016  4.926e-016   -15.272   -15.308    -0.036
   Fe+3                  2.011e-016  1.032e-016   -15.697   -15.986    -0.290
   FeF3                  2.947e-017  2.951e-017   -16.531   -16.530     0.001
   Fe(SO4)2-             5.094e-018  4.691e-018   -17.293   -17.329    -0.036
   FeCl+2                1.914e-018  1.377e-018   -17.718   -17.861    -0.143
   Fe2(OH)2+4            1.072e-020  2.867e-021   -19.970   -20.543    -0.573
   FeCl2+                2.950e-021  2.717e-021   -20.530   -20.566    -0.036
   FeHSO4+2              1.184e-022  8.517e-023   -21.927   -22.070    -0.143
   Fe3(OH)4+5            2.488e-025  3.170e-026   -24.604   -25.499    -0.895
   FeCl3                 1.198e-025  1.200e-025   -24.921   -24.921     0.001
H(0)            5.894e-026
   H2                    2.947e-026  2.951e-026   -25.531   -25.530     0.001
K               3.001e-005
   K+                    2.992e-005  2.752e-005    -4.524    -4.560    -0.036
   KSO4-                 9.141e-008  8.417e-008    -7.039    -7.075    -0.036
   KOH                   1.476e-012  1.478e-012   -11.831   -11.830     0.001
Mg              3.701e-004
   Mg+2                  3.379e-004  2.462e-004    -3.471    -3.609    -0.138
   MgSO4                 2.508e-005  2.512e-005    -4.601    -4.600     0.001
   MgHCO3+               6.501e-006  5.987e-006    -5.187    -5.223    -0.036
   MgCO3                 3.541e-007  3.546e-007    -6.451    -6.450     0.001
   MgF+                  2.507e-007  2.308e-007    -6.601    -6.637    -0.036
   MgOH+                 1.503e-008  1.384e-008    -7.823    -7.859    -0.036
Mn(2)           1.000e-007
   Mn+2                  7.742e-008  5.644e-008    -7.111    -7.248    -0.137
   MnHCO3+               1.135e-008  1.046e-008    -7.945    -7.981    -0.036
   MnCO3                 6.759e-009  6.768e-009    -8.170    -8.170     0.001
   MnSO4                 4.362e-009  4.368e-009    -8.360    -8.360     0.001
   MnCl+                 1.103e-010  1.016e-010    -9.957    -9.993    -0.036
   MnOH+                 2.440e-011  2.247e-011   -10.613   -10.648    -0.036
   MnF+                  6.018e-012  5.542e-012   -11.221   -11.256    -0.036
   MnCl2                 1.955e-014  1.958e-014   -13.709   -13.708     0.001
   MnCl3-                2.587e-018  2.382e-018   -17.587   -17.623    -0.036
Mn(3)           3.662e-029
   Mn+3                  3.662e-029  1.744e-029   -28.436   -28.758    -0.322
Na              9.603e-004
   Na+                   9.571e-004  8.821e-004    -3.019    -3.054    -0.035
   NaSO4-                2.090e-006  1.924e-006    -5.680    -5.716    -0.036
   NaHCO3                1.030e-006  1.031e-006    -5.987    -5.987     0.001
   NaCO3-                2.693e-008  2.480e-008    -7.570    -7.606    -0.036
   NaF                   7.195e-009  7.205e-009    -8.143    -8.142     0.001
   NaOH                  9.013e-011  9.026e-011   -10.045   -10.045     0.001
O(0)            2.201e-004
   O2                    1.100e-004  1.102e-004    -3.958    -3.958     0.001
S(6)            7.002e-004
   SO4-2                 6.017e-004  4.353e-004    -3.221    -3.361    -0.141
   CaSO4                 7.111e-005  7.121e-005    -4.148    -4.147     0.001
   MgSO4                 2.508e-005  2.512e-005    -4.601    -4.600     0.001
   NaSO4-                2.090e-006  1.924e-006    -5.680    -5.716    -0.036
   SrSO4                 1.529e-007  1.531e-007    -6.816    -6.815     0.001
   KSO4-                 9.141e-008  8.417e-008    -7.039    -7.075    -0.036
   ZnSO4                 1.210e-008  1.212e-008    -7.917    -7.916     0.001
   FeSO4                 8.354e-009  8.365e-009    -8.078    -8.078     0.001
   MnSO4                 4.362e-009  4.368e-009    -8.360    -8.360     0.001
   HSO4-                 2.967e-009  2.732e-009    -8.528    -8.563    -0.036
   CuSO4                 1.991e-009  1.993e-009    -8.701    -8.700     0.001
   CdSO4                 3.448e-010  3.453e-010    -9.462    -9.462     0.001
   Zn(SO4)2-2            5.963e-011  4.288e-011   -10.225   -10.368    -0.143
   CaHSO4+               2.925e-011  2.694e-011   -10.534   -10.570    -0.036
   Cd(SO4)2-2            2.291e-012  1.648e-012   -11.640   -11.783    -0.143
   AlSO4+                1.902e-012  1.752e-012   -11.721   -11.757    -0.036
   Al(SO4)2-             2.618e-014  2.411e-014   -13.582   -13.618    -0.036
   FeHSO4+               3.855e-015  3.550e-015   -14.414   -14.450    -0.036
   FeSO4+                5.349e-016  4.926e-016   -15.272   -15.308    -0.036
   Fe(SO4)2-             5.094e-018  4.691e-018   -17.293   -17.329    -0.036
   AlHSO4+2              1.394e-020  1.003e-020   -19.856   -19.999    -0.143
   FeHSO4+2              1.184e-022  8.517e-023   -21.927   -22.070    -0.143
Si              4.001e-004
   H4SiO4                3.991e-004  3.997e-004    -3.399    -3.398     0.001
   H3SiO4-               9.912e-007  9.128e-007    -6.004    -6.040    -0.036
   H2SiO4-2              1.337e-012  9.617e-013   -11.874   -12.017    -0.143
   SiF6-2                1.196e-031  8.600e-032   -30.922   -31.066    -0.143
Sr              2.701e-006
   Sr+2                  2.484e-006  1.804e-006    -5.605    -5.744    -0.139
   SrSO4                 1.529e-007  1.531e-007    -6.816    -6.815     0.001
   SrHCO3+               6.215e-008  5.737e-008    -7.207    -7.241    -0.035
   SrCO3                 1.737e-009  1.739e-009    -8.760    -8.760     0.001
   SrOH+                 1.554e-012  1.433e-012   -11.809   -11.844    -0.035
Zn              2.501e-007
   Zn+2                  1.641e-007  1.188e-007    -6.785    -6.925    -0.140
   ZnCO3                 3.573e-008  3.578e-008    -7.447    -7.446     0.001
   ZnHCO3+               3.375e-008  3.108e-008    -7.472    -7.507    -0.036
   ZnSO4                 1.210e-008  1.212e-008    -7.917    -7.916     0.001
   ZnOH+                 2.190e-009  2.017e-009    -8.659    -8.695    -0.036
   Zn(CO3)2-2            1.606e-009  1.155e-009    -8.794    -8.937    -0.143
   Zn(OH)2               3.582e-010  3.587e-010    -9.446    -9.445     0.001
   ZnCl+                 1.534e-010  1.412e-010    -9.814    -9.850    -0.036
   Zn(SO4)2-2            5.963e-011  4.288e-011   -10.225   -10.368    -0.143
   ZnCl2                 6.523e-014  6.532e-014   -13.186   -13.185     0.001
   Zn(OH)3-              1.907e-014  1.756e-014   -13.720   -13.755    -0.036
   ZnCl3-                3.516e-017  3.238e-017   -16.454   -16.490    -0.036
   Zn(OH)4-2             5.995e-020  4.311e-020   -19.222   -19.365    -0.143
   ZnCl4-2               9.966e-021  7.167e-021   -20.001   -20.145    -0.143

------------------------------Saturation indices-------------------------------

	Phase               SI log IAP  log KT

	Al(OH)3(a)       -1.13    9.67   10.80  Al(OH)3
	Albite           -1.05  -19.05  -18.00  NaAlSi3O8
	Alunite          -2.43   -3.83   -1.40  KAl3(SO4)2(OH)6
	Anhydrite        -2.09   -6.45   -4.36  CaSO4
	Anorthite        -1.77  -21.48  -19.71  CaAl2Si2O8
	Aragonite        -0.57   -8.91   -8.34  CaCO3
	Ca-Montmorillonite   4.15  -40.88  -45.03  Ca0.165Al2.33Si3.67O10(OH)2
	Calcite          -0.43   -8.91   -8.48  CaCO3
	Cd(OH)2          -7.83    5.82   13.65  Cd(OH)2
	CdSiO3           -6.64    2.42    9.06  CdSiO3
	CdSO4           -11.82  -11.92   -0.10  CdSO4
	Celestite        -2.47   -9.10   -6.63  SrSO4
	Chalcedony        0.15   -3.40   -3.55  SiO2
	Chlorite(14A)    -5.37   63.01   68.38  Mg5Al2Si3O10(OH)8
	Chrysotile       -6.68   25.52   32.20  Mg3Si2O5(OH)4
	CO2(g)           -2.05   -3.52   -1.47  CO2
	Dolomite         -1.25  -18.34  -17.09  CaMg(CO3)2
	Fe(OH)3(a)        0.69    5.58    4.89  Fe(OH)3
	Fluorite         -2.18  -12.78  -10.60  CaF2
	Gibbsite          1.56    9.67    8.11  Al(OH)3
	Goethite          6.58    5.58   -1.00  FeOOH
	Gypsum           -1.87   -6.45   -4.58  CaSO4:2H2O
	H2(g)           -22.38  -25.53   -3.15  H2
	H2O(g)           -1.51   -0.00    1.51  H2O
	Halite           -7.99   -6.41    1.58  NaCl
	Hausmannite     -17.26   43.77   61.03  Mn3O4
	Hematite         15.18   11.17   -4.01  Fe2O3
	Illite            2.77  -37.50  -40.27  K0.6Mg0.25Al2.3Si3.5O10(OH)2
	Jarosite-K       -6.89  -16.10   -9.21  KFe3(SO4)2(OH)6
	K-feldspar        0.02  -20.56  -20.57  KAlSi3O8
	K-mica            8.76   21.46   12.70  KAl3Si3O10(OH)2
	Kaolinite         5.12   12.55    7.43  Al2Si2O5(OH)4
	Manganite        -7.02   18.32   25.34  MnOOH
	Melanterite      -8.12  -10.33   -2.21  FeSO4:7H2O
	O2(g)            -1.07   -3.96   -2.89  O2
	Otavite          -2.28  -14.38  -12.10  CdCO3
	Pyrochroite      -8.07    7.13   15.20  Mn(OH)2
	Pyrolusite      -11.87   29.51   41.38  MnO2
	Quartz            0.58   -3.40   -3.98  SiO2
	Rhodochrosite    -1.94  -13.07  -11.13  MnCO3
	Sepiolite        -4.41   11.35   15.76  Mg2Si3O7.5OH:3H2O
	Sepiolite(d)     -7.31   11.35   18.66  Mg2Si3O7.5OH:3H2O
	Siderite         -1.90  -12.79  -10.89  FeCO3
	SiO2(a)          -0.69   -3.40   -2.71  SiO2
	Smithsonite      -2.75  -12.75  -10.00  ZnCO3
	Strontianite     -2.29  -11.56   -9.27  SrCO3
	Talc             -2.68   18.72   21.40  Mg3Si4O10(OH)2
	Willemite        -3.82   11.51   15.33  Zn2SiO4
	Zn(OH)2(e)       -4.05    7.45   11.50  Zn(OH)2

------------------------------------
Beginning of advection calculations.
------------------------------------

Beginning of advection time step 1, cumulative pore volumes 0.200000.
Beginning of advection time step 2, cumulative pore volumes 0.400000.
Beginning of advection time step 3, cumulative pore volumes 0.600000.
Beginning of advection time step 4, cumulative pore volumes 0.800000.
Beginning of advection time step 5, cumulative pore volumes 1.000000.

Cell 1.

Using solution 1.	
Using pure phase assemblage 1.	Pure-phase assemblage after simulation 1.

-------------------------------Phase assemblage--------------------------------

                                                      Moles in assemblage
Phase                  SI log IAP  log KT      Initial       Final       Delta

Calcite             -9.27  -17.75   -8.48   0.000e+000           0  0.000e+000

-----------------------------Solution composition------------------------------

	Elements           Molality       Moles

	Al               1.066e-002  1.066e-002
	C                1.028e-005  1.028e-005
	Ca               1.177e-002  1.177e-002
	Cd               5.277e-006  5.277e-006
	Cl               9.641e-003  9.641e-003
	Cu               2.436e-003  2.436e-003
	F                1.624e-003  1.624e-003
	Fe               5.318e-002  5.318e-002
	K                2.030e-004  2.030e-004
	Mg               1.603e-002  1.603e-002
	Mn               1.360e-003  1.360e-003
	Na               9.540e-003  9.540e-003
	S                1.012e-001  1.012e-001
	Si               1.888e-003  1.888e-003
	Sr               1.522e-005  1.522e-005
	Zn               3.349e-004  3.349e-004

----------------------------Description of solution----------------------------

                                       pH  =   3.300      Charge balance
                                       pe  =   4.000      Adjusted to redox equilibrium
       Specific Conductance (uS/cm, 25 oC) = 9110
                          Density (g/cm3)  =   1.00992
                        Activity of water  =   0.997
                           Ionic strength  =  2.125e-001
                       Mass of water (kg)  =  1.000e+000
                 Total alkalinity (eq/kg)  = -1.685e-003
                       Total CO2 (mol/kg)  =  1.028e-005
                      Temperature (deg C)  =  25.000
                  Electrical balance (eq)  = -8.575e-017
 Percent error, 100*(Cat-|An|)/(Cat+|An|)  =  -0.00
                               Iterations  =   1
                                  Total H  = 1.110217e+002
                                  Total O  = 5.591853e+001

----------------------------Distribution of species----------------------------

                                                   Log       Log         Log 
   Species                 Molality    Activity  Molality  Activity     Gamma

   H+                    6.301e-004  5.012e-004    -3.201    -3.300    -0.099
   OH-                   2.836e-011  1.992e-011   -10.547   -10.701    -0.153
   H2O                   5.551e+001  9.971e-001     1.744    -0.001     0.000
Al              1.066e-002
   AlSO4+                5.794e-003  4.313e-003    -2.237    -2.365    -0.128
   Al(SO4)2-             2.605e-003  1.939e-003    -2.584    -2.712    -0.128
   AlF+2                 1.372e-003  4.212e-004    -2.863    -3.376    -0.513
   Al+3                  7.525e-004  9.593e-005    -3.123    -4.018    -0.895
   AlF2+                 1.245e-004  9.268e-005    -3.905    -4.033    -0.128
   AlOH+2                6.176e-006  1.896e-006    -5.209    -5.722    -0.513
   AlHSO4+2              6.244e-007  1.917e-007    -6.205    -6.717    -0.513
   AlF3                  4.878e-007  5.123e-007    -6.312    -6.290     0.021
   Al(OH)2+              3.972e-008  2.956e-008    -7.401    -7.529    -0.128
   AlF4-                 1.203e-010  8.954e-011    -9.920   -10.048    -0.128
   Al(OH)3               8.252e-012  8.666e-012   -11.083   -11.062     0.021
   Al(OH)4-              4.366e-014  3.250e-014   -13.360   -13.488    -0.128
   AlF5-2                2.030e-015  6.231e-016   -14.693   -15.205    -0.513
   AlF6-3                3.901e-021  2.736e-022   -20.409   -21.563    -1.154
C(-4)           1.008e-039
   CH4                   1.008e-039  1.059e-039   -38.996   -38.975     0.021
C(4)            1.028e-005
   CO2                   1.025e-005  1.077e-005    -4.989    -4.968     0.021
   HCO3-                 1.283e-008  9.527e-009    -7.892    -8.021    -0.129
   FeHCO3+               1.229e-008  9.150e-009    -7.910    -8.039    -0.128
   MgHCO3+               3.921e-010  2.918e-010    -9.407    -9.535    -0.128
   CaHCO3+               3.281e-010  2.437e-010    -9.484    -9.613    -0.129
   MnHCO3+               2.795e-010  2.080e-010    -9.554    -9.682    -0.128
   ZnHCO3+               6.850e-011  5.099e-011   -10.164   -10.293    -0.128
   NaHCO3                3.366e-011  3.535e-011   -10.473   -10.452     0.021
   SrHCO3+               5.166e-013  3.837e-013   -12.287   -12.416    -0.129
   CdHCO3+               2.110e-013  1.570e-013   -12.676   -12.804    -0.128
   FeCO3                 1.956e-013  2.054e-013   -12.709   -12.687     0.021
   MnCO3                 1.652e-014  1.735e-014   -13.782   -13.761     0.021
   ZnCO3                 7.201e-015  7.562e-015   -14.143   -14.121     0.021
   CO3-2                 2.930e-015  8.915e-016   -14.533   -15.050    -0.517
   CaCO3                 2.859e-015  3.003e-015   -14.544   -14.522     0.021
   MgCO3                 2.121e-015  2.227e-015   -14.674   -14.652     0.021
   NaCO3-                1.472e-016  1.095e-016   -15.832   -15.960    -0.128
   SrCO3                 1.427e-018  1.498e-018   -17.846   -17.824     0.021
   CdCO3                 3.514e-019  3.691e-019   -18.454   -18.433     0.021
   Zn(CO3)2-2            4.695e-025  1.441e-025   -24.328   -24.841    -0.513
   Cd(CO3)2-2            3.389e-030  1.040e-030   -29.470   -29.983    -0.513
Ca              1.177e-002
   Ca+2                  6.334e-003  2.005e-003    -2.198    -2.698    -0.500
   CaSO4                 5.416e-003  5.688e-003    -2.266    -2.245     0.021
   CaHSO4+               2.244e-005  1.670e-005    -4.649    -4.777    -0.128
   CaF+                  1.030e-008  7.667e-009    -7.987    -8.115    -0.128
   CaHCO3+               3.281e-010  2.437e-010    -9.484    -9.613    -0.129
   CaOH+                 8.894e-013  6.620e-013   -12.051   -12.179    -0.128
   CaCO3                 2.859e-015  3.003e-015   -14.544   -14.522     0.021
Cd              5.277e-006
   CdSO4                 2.035e-006  2.137e-006    -5.691    -5.670     0.021
   Cd+2                  1.698e-006  5.212e-007    -5.770    -6.283    -0.513
   Cd(SO4)2-2            1.085e-006  3.331e-007    -5.964    -6.477    -0.513
   CdCl+                 4.499e-007  3.349e-007    -6.347    -6.475    -0.128
   CdCl2                 8.945e-009  9.393e-009    -8.048    -8.027     0.021
   CdCl3-                5.357e-011  3.988e-011   -10.271   -10.399    -0.128
   CdHCO3+               2.110e-013  1.570e-013   -12.676   -12.804    -0.128
   CdOH+                 1.159e-013  8.625e-014   -12.936   -13.064    -0.128
   CdCO3                 3.514e-019  3.691e-019   -18.454   -18.433     0.021
   Cd(OH)2               8.775e-021  9.215e-021   -20.057   -20.035     0.021
   Cd(CO3)2-2            3.389e-030  1.040e-030   -29.470   -29.983    -0.513
   Cd(OH)3-              2.764e-030  2.057e-030   -29.559   -29.687    -0.128
   Cd(OH)4-2             1.188e-040  0.000e+000   -39.925   -40.438    -0.513
Cl              9.641e-003
   Cl-                   9.511e-003  6.728e-003    -2.022    -2.172    -0.150
   FeCl+                 1.198e-004  8.920e-005    -3.921    -4.050    -0.128
   MnCl+                 9.022e-006  6.716e-006    -5.045    -5.173    -0.128
   ZnCl+                 1.034e-006  7.699e-007    -5.985    -6.114    -0.128
   CdCl+                 4.499e-007  3.349e-007    -6.347    -6.475    -0.128
   MnCl2                 1.878e-008  1.972e-008    -7.726    -7.705     0.021
   CdCl2                 8.945e-009  9.393e-009    -8.048    -8.027     0.021
   ZnCl2                 5.165e-009  5.424e-009    -8.287    -8.266     0.021
   ZnCl3-                5.502e-011  4.095e-011   -10.260   -10.388    -0.128
   CdCl3-                5.357e-011  3.988e-011   -10.271   -10.399    -0.128
   MnCl3-                4.911e-011  3.655e-011   -10.309   -10.437    -0.128
   FeCl+2                6.071e-012  1.864e-012   -11.217   -11.730    -0.513
   ZnCl4-2               4.499e-013  1.381e-013   -12.347   -12.860    -0.513
   FeCl2+                7.525e-014  5.601e-014   -13.124   -13.252    -0.128
   FeCl3                 3.589e-017  3.769e-017   -16.445   -16.424     0.021
Cu(1)           3.181e-005
   Cu+                   3.181e-005  2.149e-005    -4.497    -4.668    -0.170
Cu(2)           2.404e-003
   Cu+2                  1.272e-003  4.095e-004    -2.896    -3.388    -0.492
   CuSO4                 1.132e-003  1.189e-003    -2.946    -2.925     0.021
   CuOH+                 1.141e-008  8.147e-009    -7.943    -8.089    -0.146
   Cu(OH)2               3.225e-011  3.387e-011   -10.491   -10.470     0.021
   Cu(OH)3-              5.454e-021  4.060e-021   -20.263   -20.391    -0.128
   Cu(OH)4-2             5.251e-030  1.612e-030   -29.280   -29.793    -0.513
F               1.624e-003
   AlF+2                 1.372e-003  4.212e-004    -2.863    -3.376    -0.513
   AlF2+                 1.245e-004  9.268e-005    -3.905    -4.033    -0.128
   F-                    6.252e-007  4.391e-007    -6.204    -6.357    -0.153
   AlF3                  4.878e-007  5.123e-007    -6.312    -6.290     0.021
   HF                    3.143e-007  3.300e-007    -6.503    -6.481     0.021
   MgF+                  1.020e-007  7.594e-008    -6.991    -7.120    -0.128
   FeF+                  5.665e-008  4.217e-008    -7.247    -7.375    -0.128
   CaF+                  1.030e-008  7.667e-009    -7.987    -8.115    -0.128
   NaF                   1.588e-009  1.667e-009    -8.799    -8.778     0.021
   MnF+                  9.998e-010  7.442e-010    -9.000    -9.128    -0.128
   AlF4-                 1.203e-010  8.954e-011    -9.920   -10.048    -0.128
   FeF+2                 2.079e-011  6.382e-012   -10.682   -11.195    -0.513
   HF2-                  7.469e-013  5.559e-013   -12.127   -12.255    -0.128
   FeF2+                 1.499e-013  1.116e-013   -12.824   -12.953    -0.128
   AlF5-2                2.030e-015  6.231e-016   -14.693   -15.205    -0.513
   FeF3                  7.392e-017  7.762e-017   -16.131   -16.110     0.021
   AlF6-3                3.901e-021  2.736e-022   -20.409   -21.563    -1.154
   SiF6-2                4.469e-024  1.372e-024   -23.350   -23.863    -0.513
Fe(2)           5.318e-002
   Fe+2                  2.983e-002  9.604e-003    -1.525    -2.018    -0.492
   FeSO4                 2.312e-002  2.428e-002    -1.636    -1.615     0.021
   FeCl+                 1.198e-004  8.920e-005    -3.921    -4.050    -0.128
   FeHSO4+               1.075e-004  7.999e-005    -3.969    -4.097    -0.128
   FeF+                  5.665e-008  4.217e-008    -7.247    -7.375    -0.128
   FeHCO3+               1.229e-008  9.150e-009    -7.910    -8.039    -0.128
   FeOH+                 8.118e-009  6.042e-009    -8.091    -8.219    -0.128
   FeCO3                 1.956e-013  2.054e-013   -12.709   -12.687     0.021
   Fe(HS)2               0.000e+000  0.000e+000   -52.873   -52.852     0.021
   Fe(HS)3-              0.000e+000  0.000e+000   -80.579   -80.707    -0.128
Fe(3)           3.112e-009
   FeSO4+                1.921e-009  1.430e-009    -8.717    -8.845    -0.128
   Fe(SO4)2-             5.975e-010  4.447e-010    -9.224    -9.352    -0.128
   FeOH+2                3.838e-010  1.178e-010    -9.416    -9.929    -0.513
   Fe(OH)2+              1.043e-010  7.762e-011    -9.982   -10.110    -0.128
   Fe+3                  7.195e-011  9.172e-012   -10.143   -11.038    -0.895
   FeF+2                 2.079e-011  6.382e-012   -10.682   -11.195    -0.513
   FeHSO4+2              6.251e-012  1.919e-012   -11.204   -11.717    -0.513
   FeCl+2                6.071e-012  1.864e-012   -11.217   -11.730    -0.513
   FeF2+                 1.499e-013  1.116e-013   -12.824   -12.953    -0.128
   FeCl2+                7.525e-014  5.601e-014   -13.124   -13.252    -0.128
   Fe(OH)3               1.894e-014  1.989e-014   -13.723   -13.701     0.021
   FeF3                  7.392e-017  7.762e-017   -16.131   -16.110     0.021
   Fe2(OH)2+4            4.209e-017  3.736e-019   -16.376   -18.428    -2.052
   FeCl3                 3.589e-017  3.769e-017   -16.445   -16.424     0.021
   Fe(OH)4-              4.850e-020  3.610e-020   -19.314   -19.443    -0.128
   Fe3(OH)4+5            9.732e-024  6.058e-027   -23.012   -26.218    -3.206
H(0)            3.387e-018
   H2                    1.693e-018  1.778e-018   -17.771   -17.750     0.021
K               2.030e-004
   K+                    1.854e-004  1.311e-004    -3.732    -3.882    -0.150
   KSO4-                 1.760e-005  1.310e-005    -4.754    -4.883    -0.128
   KOH                   8.615e-016  9.047e-016   -15.065   -15.044     0.021
Mg              1.603e-002
   MgSO4                 8.308e-003  8.725e-003    -2.080    -2.059     0.021
   Mg+2                  7.726e-003  2.618e-003    -2.112    -2.582    -0.470
   MgF+                  1.020e-007  7.594e-008    -6.991    -7.120    -0.128
   MgHCO3+               3.921e-010  2.918e-010    -9.407    -9.535    -0.128
   MgOH+                 2.541e-011  1.891e-011   -10.595   -10.723    -0.128
   MgCO3                 2.121e-015  2.227e-015   -14.674   -14.652     0.021
Mn(2)           1.360e-003
   Mn+2                  7.610e-004  2.450e-004    -3.119    -3.611    -0.492
   MnSO4                 5.899e-004  6.194e-004    -3.229    -3.208     0.021
   MnCl+                 9.022e-006  6.716e-006    -5.045    -5.173    -0.128
   MnCl2                 1.878e-008  1.972e-008    -7.726    -7.705     0.021
   MnF+                  9.998e-010  7.442e-010    -9.000    -9.128    -0.128
   MnHCO3+               2.795e-010  2.080e-010    -9.554    -9.682    -0.128
   MnCl3-                4.911e-011  3.655e-011   -10.309   -10.437    -0.128
   MnOH+                 1.683e-011  1.253e-011   -10.774   -10.902    -0.128
   MnCO3                 1.652e-014  1.735e-014   -13.782   -13.761     0.021
Mn(3)           1.080e-024
   Mn+3                  1.080e-024  7.572e-026   -23.967   -25.121    -1.154
Na              9.540e-003
   Na+                   8.908e-003  6.599e-003    -2.050    -2.181    -0.130
   NaSO4-                6.317e-004  4.702e-004    -3.199    -3.328    -0.128
   NaF                   1.588e-009  1.667e-009    -8.799    -8.778     0.021
   NaHCO3                3.366e-011  3.535e-011   -10.473   -10.452     0.021
   NaOH                  8.260e-014  8.674e-014   -13.083   -13.062     0.021
   NaCO3-                1.472e-016  1.095e-016   -15.832   -15.960    -0.128
O(0)            0.000e+000
   O2                    0.000e+000  0.000e+000   -56.904   -56.882     0.021
S(-2)           5.350e-027
   H2S                   5.348e-027  5.617e-027   -26.272   -26.251     0.021
   HS-                   1.825e-030  1.282e-030   -29.739   -29.892    -0.153
   S-2                   1.058e-039  3.089e-040   -38.976   -39.510    -0.535
   Fe(HS)2               0.000e+000  0.000e+000   -52.873   -52.852     0.021
   Fe(HS)3-              0.000e+000  0.000e+000   -80.579   -80.707    -0.128
S(6)            1.012e-001
   SO4-2                 4.965e-002  1.422e-002    -1.304    -1.847    -0.543
   FeSO4                 2.312e-002  2.428e-002    -1.636    -1.615     0.021
   MgSO4                 8.308e-003  8.725e-003    -2.080    -2.059     0.021
   AlSO4+                5.794e-003  4.313e-003    -2.237    -2.365    -0.128
   CaSO4                 5.416e-003  5.688e-003    -2.266    -2.245     0.021
   Al(SO4)2-             2.605e-003  1.939e-003    -2.584    -2.712    -0.128
   CuSO4                 1.132e-003  1.189e-003    -2.946    -2.925     0.021
   HSO4-                 9.307e-004  6.928e-004    -3.031    -3.159    -0.128
   NaSO4-                6.317e-004  4.702e-004    -3.199    -3.328    -0.128
   MnSO4                 5.899e-004  6.194e-004    -3.229    -3.208     0.021
   ZnSO4                 1.349e-004  1.417e-004    -3.870    -3.849     0.021
   FeHSO4+               1.075e-004  7.999e-005    -3.969    -4.097    -0.128
   Zn(SO4)2-2            5.334e-005  1.637e-005    -4.273    -4.786    -0.513
   CaHSO4+               2.244e-005  1.670e-005    -4.649    -4.777    -0.128
   KSO4-                 1.760e-005  1.310e-005    -4.754    -4.883    -0.128
   SrSO4                 6.950e-006  7.299e-006    -5.158    -5.137     0.021
   CdSO4                 2.035e-006  2.137e-006    -5.691    -5.670     0.021
   Cd(SO4)2-2            1.085e-006  3.331e-007    -5.964    -6.477    -0.513
   AlHSO4+2              6.244e-007  1.917e-007    -6.205    -6.717    -0.513
   FeSO4+                1.921e-009  1.430e-009    -8.717    -8.845    -0.128
   Fe(SO4)2-             5.975e-010  4.447e-010    -9.224    -9.352    -0.128
   FeHSO4+2              6.251e-012  1.919e-012   -11.204   -11.717    -0.513
Si              1.888e-003
   H4SiO4                1.888e-003  1.982e-003    -2.724    -2.703     0.021
   H3SiO4-               7.835e-010  5.832e-010    -9.106    -9.234    -0.128
   H2SiO4-2              2.579e-019  7.915e-020   -18.589   -19.102    -0.513
   SiF6-2                4.469e-024  1.372e-024   -23.350   -23.863    -0.513
Sr              1.522e-005
   Sr+2                  8.272e-006  2.633e-006    -5.082    -5.580    -0.497
   SrSO4                 6.950e-006  7.299e-006    -5.158    -5.137     0.021
   SrHCO3+               5.166e-013  3.837e-013   -12.287   -12.416    -0.129
   SrOH+                 3.655e-016  2.687e-016   -15.437   -15.571    -0.134
   SrCO3                 1.427e-018  1.498e-018   -17.846   -17.824     0.021
Zn              3.349e-004
   Zn+2                  1.456e-004  4.251e-005    -3.837    -4.371    -0.535
   ZnSO4                 1.349e-004  1.417e-004    -3.870    -3.849     0.021
   Zn(SO4)2-2            5.334e-005  1.637e-005    -4.273    -4.786    -0.513
   ZnCl+                 1.034e-006  7.699e-007    -5.985    -6.114    -0.128
   ZnCl2                 5.165e-009  5.424e-009    -8.287    -8.266     0.021
   ZnOH+                 1.246e-010  9.274e-011    -9.904   -10.033    -0.128
   ZnHCO3+               6.850e-011  5.099e-011   -10.164   -10.293    -0.128
   ZnCl3-                5.502e-011  4.095e-011   -10.260   -10.388    -0.128
   ZnCl4-2               4.499e-013  1.381e-013   -12.347   -12.860    -0.513
   ZnCO3                 7.201e-015  7.562e-015   -14.143   -14.121     0.021
   Zn(OH)2               2.017e-015  2.119e-015   -14.695   -14.674     0.021
   Zn(OH)3-              1.791e-023  1.333e-023   -22.747   -22.875    -0.128
   Zn(CO3)2-2            4.695e-025  1.441e-025   -24.328   -24.841    -0.513
   Zn(OH)4-2             1.369e-032  4.203e-033   -31.864   -32.376    -0.513

------------------------------Saturation indices-------------------------------

	Phase               SI log IAP  log KT

	Al(OH)3(a)       -4.92    5.88   10.80  Al(OH)3
	Albite           -5.77  -23.77  -18.00  NaAlSi3O8
	Alunite           1.56    0.16   -1.40  KAl3(SO4)2(OH)6
	Anhydrite        -0.18   -4.55   -4.36  CaSO4
	Anorthite       -15.36  -35.07  -19.71  CaAl2Si2O8
	Aragonite        -9.41  -17.75   -8.34  CaCO3
	Ca-Montmorillonite  -3.35  -48.38  -45.03  Ca0.165Al2.33Si3.67O10(OH)2
	Calcite          -9.27  -17.75   -8.48  CaCO3
	Cd(OH)2         -13.34    0.31   13.65  Cd(OH)2
	CdSiO3          -11.44   -2.38    9.06  CdSiO3
	CdSO4            -8.03   -8.13   -0.10  CdSO4
	Celestite        -0.79   -7.43   -6.63  SrSO4
	CH4(g)          -36.12  -38.98   -2.86  CH4
	Chalcedony        0.85   -2.70   -3.55  SiO2
	Chlorite(14A)   -44.64   23.74   68.38  Mg5Al2Si3O10(OH)8
	Chrysotile      -25.55    6.65   32.20  Mg3Si2O5(OH)4
	CO2(g)           -3.50   -4.97   -1.47  CO2
	Dolomite        -18.29  -35.38  -17.09  CaMg(CO3)2
	Fe(OH)3(a)       -6.03   -1.14    4.89  Fe(OH)3
	FeS(ppt)        -24.69  -28.61   -3.92  FeS
	Fluorite         -4.81  -15.41  -10.60  CaF2
	Gibbsite         -2.23    5.88    8.11  Al(OH)3
	Goethite         -0.14   -1.14   -1.00  FeOOH
	Gypsum            0.03   -4.55   -4.58  CaSO4:2H2O
	H2(g)           -14.60  -17.75   -3.15  H2
	H2O(g)           -1.51   -0.00    1.51  H2O
	H2S(g)          -25.25  -26.25   -1.00  H2S
	Halite           -5.93   -4.35    1.58  NaCl
	Hausmannite     -37.47   23.56   61.03  Mn3O4
	Hematite          1.73   -2.28   -4.01  Fe2O3
	Illite           -7.14  -47.40  -40.27  K0.6Mg0.25Al2.3Si3.5O10(OH)2
	Jarosite-K      -11.69  -20.90   -9.21  KFe3(SO4)2(OH)6
	K-feldspar       -4.90  -25.47  -20.57  KAlSi3O8
	K-mica           -3.75    8.96   12.70  KAl3Si3O10(OH)2
	Kaolinite        -1.08    6.36    7.43  Al2Si2O5(OH)4
	Mackinawite     -23.96  -28.61   -4.65  FeS
	Manganite       -15.05   10.29   25.34  MnOOH
	Melanterite      -1.66   -3.87   -2.21  FeSO4:7H2O
	O2(g)           -53.99  -56.88   -2.89  O2
	Otavite          -9.23  -21.33  -12.10  CdCO3
	Pyrite          -28.72  -47.20  -18.48  FeS2
	Pyrochroite     -12.21    2.99   15.20  Mn(OH)2
	Pyrolusite      -23.79   17.59   41.38  MnO2
	Quartz            1.28   -2.70   -3.98  SiO2
	Rhodochrosite    -7.53  -18.66  -11.13  MnCO3
	Sepiolite       -15.83   -0.07   15.76  Mg2Si3O7.5OH:3H2O
	Sepiolite(d)    -18.73   -0.07   18.66  Mg2Si3O7.5OH:3H2O
	Siderite         -6.18  -17.07  -10.89  FeCO3
	SiO2(a)           0.01   -2.70   -2.71  SiO2
	Smithsonite      -9.42  -19.42  -10.00  ZnCO3
	Sphalerite      -19.35  -30.96  -11.62  ZnS
	Strontianite    -11.36  -20.63   -9.27  SrCO3
	Sulfur          -16.53  -11.65    4.88  S
	Talc            -20.15    1.25   21.40  Mg3Si4O10(OH)2
	Willemite       -13.58    1.75   15.33  Zn2SiO4
	Zn(OH)2(e)       -9.27    2.23   11.50  Zn(OH)2


Cell 2.

Using solution 2.	Solution after simulation 1.
Using pure phase assemblage 2.	Pure-phase assemblage after simulation 1.

-------------------------------Phase assemblage--------------------------------

                                                      Moles in assemblage
Phase                  SI log IAP  log KT      Initial       Final       Delta

Calcite              0.00   -8.48   -8.48   7.485e-002  6.152e-002 -1.333e-002

-----------------------------Solution composition------------------------------

	Elements           Molality       Moles

	Al               1.066e-002  1.066e-002
	C                2.210e-002  2.209e-002
	Ca               3.387e-002  3.385e-002
	Cd               5.279e-006  5.277e-006
	Cl               9.645e-003  9.641e-003
	Cu               2.437e-003  2.436e-003
	F                1.624e-003  1.624e-003
	Fe               5.320e-002  5.318e-002
	K                2.030e-004  2.030e-004
	Mg               1.604e-002  1.603e-002
	Mn               1.360e-003  1.360e-003
	Na               9.543e-003  9.540e-003
	S                1.012e-001  1.012e-001
	Si               1.888e-003  1.888e-003
	Sr               1.523e-005  1.522e-005
	Zn               3.350e-004  3.349e-004

----------------------------Description of solution----------------------------

                                       pH  =   6.327      Charge balance
                                       pe  =   3.586      Adjusted to redox equilibrium
       Specific Conductance (uS/cm, 25 oC) = 9988
                          Density (g/cm3)  =   1.01185
                        Activity of water  =   0.996
                           Ionic strength  =  2.404e-001
                       Mass of water (kg)  =  9.996e-001
                 Total alkalinity (eq/kg)  =  4.240e-002
                       Total CO2 (mol/kg)  =  2.210e-002
                      Temperature (deg C)  =  25.000
                  Electrical balance (eq)  =  3.583e-012
 Percent error, 100*(Cat-|An|)/(Cat+|An|)  =   0.00
                               Iterations  =   5
                                  Total H  = 1.110217e+002
                                  Total O  = 5.598478e+001

----------------------------Distribution of species----------------------------

                                                   Log       Log         Log 
   Species                 Molality    Activity  Molality  Activity     Gamma

   H+                    5.953e-007  4.707e-007    -6.225    -6.327    -0.102
   OH-                   3.061e-008  2.119e-008    -7.514    -7.674    -0.160
   H2O                   5.551e+001  9.965e-001     1.744    -0.002     0.000
Al              1.066e-002
   Al(OH)4-              4.183e-003  3.095e-003    -2.379    -2.509    -0.131
   Al(OH)2+              3.361e-003  2.487e-003    -2.473    -2.604    -0.131
   Al(OH)3               7.340e-004  7.757e-004    -3.134    -3.110     0.024
   AlF+2                 7.140e-004  2.140e-004    -3.146    -3.670    -0.523
   AlOH+2                5.001e-004  1.499e-004    -3.301    -3.824    -0.523
   AlSO4+                4.508e-004  3.336e-004    -3.346    -3.477    -0.131
   AlF2+                 4.351e-004  3.219e-004    -3.361    -3.492    -0.131
   Al(SO4)2-             2.109e-004  1.561e-004    -3.676    -3.807    -0.131
   Al+3                  5.899e-005  7.129e-006    -4.229    -5.147    -0.918
   AlF3                  1.151e-005  1.217e-005    -4.939    -4.915     0.024
   AlF4-                 1.965e-008  1.454e-008    -7.707    -7.837    -0.131
   AlHSO4+2              4.645e-011  1.392e-011   -10.333   -10.856    -0.523
   AlF5-2                2.308e-012  6.917e-013   -11.637   -12.160    -0.523
   AlF6-3                3.124e-017  2.076e-018   -16.505   -17.683    -1.177
C(-4)           0.000e+000
   CH4                   0.000e+000  0.000e+000   -57.130   -57.106     0.024
C(4)            2.210e-002
   HCO3-                 8.230e-003  6.051e-003    -2.085    -2.218    -0.134
   FeHCO3+               6.630e-003  4.906e-003    -2.178    -2.309    -0.131
   CO2                   6.081e-003  6.427e-003    -2.216    -2.192     0.024
   CaHCO3+               5.770e-004  4.242e-004    -3.239    -3.372    -0.134
   MgHCO3+               2.394e-004  1.772e-004    -3.621    -3.752    -0.131
   MnHCO3+               1.520e-004  1.125e-004    -3.818    -3.949    -0.131
   FeCO3                 1.109e-004  1.172e-004    -3.955    -3.931     0.024
   ZnHCO3+               3.659e-005  2.708e-005    -4.437    -4.567    -0.131
   NaHCO3                2.098e-005  2.217e-005    -4.678    -4.654     0.024
   MnCO3                 9.450e-006  9.988e-006    -5.025    -5.001     0.024
   CaCO3                 5.265e-006  5.565e-006    -5.279    -5.255     0.024
   ZnCO3                 4.045e-006  4.275e-006    -5.393    -5.369     0.024
   CO3-2                 2.063e-006  6.028e-007    -5.685    -6.220    -0.534
   MgCO3                 1.362e-006  1.439e-006    -5.866    -5.842     0.024
   SrHCO3+               3.140e-007  2.309e-007    -6.503    -6.637    -0.134
   Zn(CO3)2-2            1.838e-007  5.510e-008    -6.736    -7.259    -0.523
   CdHCO3+               1.262e-007  9.336e-008    -6.899    -7.030    -0.131
   NaCO3-                9.886e-008  7.315e-008    -7.005    -7.136    -0.131
   SrCO3                 9.082e-010  9.599e-010    -9.042    -9.018     0.024
   CdCO3                 2.211e-010  2.336e-010    -9.655    -9.631     0.024
   Cd(CO3)2-2            1.486e-012  4.454e-013   -11.828   -12.351    -0.523
Ca              3.387e-002
   Ca+2                  1.794e-002  5.495e-003    -1.746    -2.260    -0.514
   CaSO4                 1.535e-002  1.622e-002    -1.814    -1.790     0.024
   CaHCO3+               5.770e-004  4.242e-004    -3.239    -3.372    -0.134
   CaCO3                 5.265e-006  5.565e-006    -5.279    -5.255     0.024
   CaF+                  1.942e-007  1.437e-007    -6.712    -6.843    -0.131
   CaHSO4+               6.046e-008  4.474e-008    -7.219    -7.349    -0.131
   CaOH+                 2.609e-009  1.930e-009    -8.584    -8.714    -0.131
Cd              5.279e-006
   CdSO4                 1.970e-006  2.082e-006    -5.706    -5.681     0.024
   Cd+2                  1.628e-006  4.879e-007    -5.788    -6.312    -0.523
   Cd(SO4)2-2            1.127e-006  3.378e-007    -5.948    -6.471    -0.523
   CdCl+                 4.192e-007  3.101e-007    -6.378    -6.508    -0.131
   CdHCO3+               1.262e-007  9.336e-008    -6.899    -7.030    -0.131
   CdCl2                 8.142e-009  8.605e-009    -8.089    -8.065     0.024
   CdCO3                 2.211e-010  2.336e-010    -9.655    -9.631     0.024
   CdOH+                 1.161e-010  8.591e-011    -9.935   -10.066    -0.131
   CdCl3-                4.884e-011  3.614e-011   -10.311   -10.442    -0.131
   Cd(CO3)2-2            1.486e-012  4.454e-013   -11.828   -12.351    -0.523
   Cd(OH)2               9.241e-015  9.767e-015   -14.034   -14.010     0.024
   Cd(OH)3-              3.135e-021  2.320e-021   -20.504   -20.635    -0.131
   Cd(OH)4-2             1.460e-028  4.377e-029   -27.836   -28.359    -0.523
Cl              9.645e-003
   Cl-                   9.535e-003  6.656e-003    -2.021    -2.177    -0.156
   FeCl+                 1.007e-004  7.448e-005    -3.997    -4.128    -0.131
   MnCl+                 7.643e-006  5.655e-006    -5.117    -5.248    -0.131
   ZnCl+                 8.605e-007  6.367e-007    -6.065    -6.196    -0.131
   CdCl+                 4.192e-007  3.101e-007    -6.378    -6.508    -0.131
   MnCl2                 1.555e-008  1.643e-008    -7.808    -7.784     0.024
   CdCl2                 8.142e-009  8.605e-009    -8.089    -8.065     0.024
   ZnCl2                 4.199e-009  4.438e-009    -8.377    -8.353     0.024
   CdCl3-                4.884e-011  3.614e-011   -10.311   -10.442    -0.131
   ZnCl3-                4.479e-011  3.314e-011   -10.349   -10.480    -0.131
   MnCl3-                4.071e-011  3.012e-011   -10.390   -10.521    -0.131
   FeCl+2                2.002e-012  6.001e-013   -11.698   -12.222    -0.523
   ZnCl4-2               3.689e-013  1.106e-013   -12.433   -12.956    -0.523
   FeCl2+                2.411e-014  1.784e-014   -13.618   -13.749    -0.131
   FeCl3                 1.124e-017  1.188e-017   -16.949   -16.925     0.024
Cu(1)           7.802e-005
   Cu+                   7.802e-005  5.178e-005    -4.108    -4.286    -0.178
Cu(2)           2.358e-003
   Cu+2                  1.226e-003  3.805e-004    -2.912    -3.420    -0.508
   CuSO4                 1.088e-003  1.149e-003    -2.964    -2.940     0.024
   Cu(OH)2               3.370e-005  3.562e-005    -4.472    -4.448     0.024
   CuOH+                 1.143e-005  8.054e-006    -4.942    -5.094    -0.152
   Cu(OH)3-              6.141e-012  4.544e-012   -11.212   -11.343    -0.131
   Cu(OH)4-2             6.404e-018  1.919e-018   -17.194   -17.717    -0.523
F               1.624e-003
   AlF+2                 7.140e-004  2.140e-004    -3.146    -3.670    -0.523
   AlF2+                 4.351e-004  3.219e-004    -3.361    -3.492    -0.131
   AlF3                  1.151e-005  1.217e-005    -4.939    -4.915     0.024
   F-                    4.336e-006  3.002e-006    -5.363    -5.523    -0.160
   MgF+                  6.707e-007  4.963e-007    -6.173    -6.304    -0.131
   FeF+                  3.289e-007  2.434e-007    -6.483    -6.614    -0.131
   CaF+                  1.942e-007  1.437e-007    -6.712    -6.843    -0.131
   AlF4-                 1.965e-008  1.454e-008    -7.707    -7.837    -0.131
   NaF                   1.065e-008  1.126e-008    -7.973    -7.949     0.024
   MnF+                  5.854e-009  4.331e-009    -8.233    -8.363    -0.131
   HF                    2.005e-009  2.119e-009    -8.698    -8.674     0.024
   FeF+2                 4.739e-011  1.420e-011   -10.324   -10.848    -0.523
   AlF5-2                2.308e-012  6.917e-013   -11.637   -12.160    -0.523
   FeF2+                 2.294e-012  1.697e-012   -11.639   -11.770    -0.131
   HF2-                  3.299e-014  2.441e-014   -13.482   -13.612    -0.131
   FeF3                  7.641e-015  8.075e-015   -14.117   -14.093     0.024
   AlF6-3                3.124e-017  2.076e-018   -16.505   -17.683    -1.177
   SiF6-2                3.670e-031  1.100e-031   -30.435   -30.959    -0.523
Fe(2)           5.315e-002
   Fe+2                  2.612e-002  8.107e-003    -1.583    -2.091    -0.508
   FeSO4                 2.018e-002  2.133e-002    -1.695    -1.671     0.024
   FeHCO3+               6.630e-003  4.906e-003    -2.178    -2.309    -0.131
   FeCO3                 1.109e-004  1.172e-004    -3.955    -3.931     0.024
   FeCl+                 1.007e-004  7.448e-005    -3.997    -4.128    -0.131
   FeOH+                 7.335e-006  5.427e-006    -5.135    -5.265    -0.131
   FeF+                  3.289e-007  2.434e-007    -6.483    -6.614    -0.131
   FeHSO4+               8.921e-008  6.600e-008    -7.050    -7.180    -0.131
   Fe(HS)2               0.000e+000  0.000e+000  -100.782  -100.758     0.024
   Fe(HS)3-              0.000e+000  0.000e+000  -152.398  -152.529    -0.131
Fe(3)           4.620e-005
   Fe(OH)2+              3.866e-005  2.860e-005    -4.413    -4.544    -0.131
   Fe(OH)3               7.381e-006  7.801e-006    -5.132    -5.108     0.024
   FeOH+2                1.362e-007  4.081e-008    -6.866    -7.389    -0.523
   Fe(OH)4-              2.035e-008  1.506e-008    -7.691    -7.822    -0.131
   FeSO4+                6.547e-010  4.844e-010    -9.184    -9.315    -0.131
   Fe(SO4)2-             2.119e-010  1.568e-010    -9.674    -9.805    -0.131
   FeF+2                 4.739e-011  1.420e-011   -10.324   -10.848    -0.523
   Fe+3                  2.471e-011  2.986e-012   -10.607   -11.525    -0.918
   Fe2(OH)2+4            5.555e-012  4.482e-014   -11.255   -13.349    -2.093
   FeF2+                 2.294e-012  1.697e-012   -11.639   -11.770    -0.131
   FeCl+2                2.002e-012  6.001e-013   -11.698   -12.222    -0.523
   Fe3(OH)4+5            4.995e-013  2.679e-016   -12.301   -15.572    -3.271
   FeCl2+                2.411e-014  1.784e-014   -13.618   -13.749    -0.131
   FeF3                  7.641e-015  8.075e-015   -14.117   -14.093     0.024
   FeHSO4+2              2.037e-015  6.106e-016   -14.691   -15.214    -0.523
   FeCl3                 1.124e-017  1.188e-017   -16.949   -16.925     0.024
H(0)            1.996e-023
   H2                    9.980e-024  1.055e-023   -23.001   -22.977     0.024
K               2.030e-004
   K+                    1.849e-004  1.291e-004    -3.733    -3.889    -0.156
   KSO4-                 1.814e-005  1.342e-005    -4.741    -4.872    -0.131
   KOH                   8.964e-013  9.474e-013   -12.047   -12.023     0.024
Mg              1.604e-002
   MgSO4                 8.212e-003  8.680e-003    -2.086    -2.061     0.024
   Mg+2                  7.586e-003  2.502e-003    -2.120    -2.602    -0.482
   MgHCO3+               2.394e-004  1.772e-004    -3.621    -3.752    -0.131
   MgCO3                 1.362e-006  1.439e-006    -5.866    -5.842     0.024
   MgF+                  6.707e-007  4.963e-007    -6.173    -6.304    -0.131
   MgOH+                 2.599e-008  1.923e-008    -7.585    -7.716    -0.131
Mn(2)           1.360e-003
   Mn+2                  6.720e-004  2.086e-004    -3.173    -3.681    -0.508
   MnSO4                 5.193e-004  5.488e-004    -3.285    -3.261     0.024
   MnHCO3+               1.520e-004  1.125e-004    -3.818    -3.949    -0.131
   MnCO3                 9.450e-006  9.988e-006    -5.025    -5.001     0.024
   MnCl+                 7.643e-006  5.655e-006    -5.117    -5.248    -0.131
   MnCl2                 1.555e-008  1.643e-008    -7.808    -7.784     0.024
   MnOH+                 1.534e-008  1.135e-008    -7.814    -7.945    -0.131
   MnF+                  5.854e-009  4.331e-009    -8.233    -8.363    -0.131
   MnCl3-                4.071e-011  3.012e-011   -10.390   -10.521    -0.131
Mn(3)           3.740e-025
   Mn+3                  3.740e-025  2.486e-026   -24.427   -25.605    -1.177
Na              9.543e-003
   Na+                   8.869e-003  6.516e-003    -2.052    -2.186    -0.134
   NaSO4-                6.531e-004  4.832e-004    -3.185    -3.316    -0.131
   NaHCO3                2.098e-005  2.217e-005    -4.678    -4.654     0.024
   NaCO3-                9.886e-008  7.315e-008    -7.005    -7.136    -0.131
   NaF                   1.065e-008  1.126e-008    -7.973    -7.949     0.024
   NaOH                  8.623e-011  9.114e-011   -10.064   -10.040     0.024
O(0)            0.000e+000
   O2                    0.000e+000  0.000e+000   -46.453   -46.429     0.024
S(-2)           0.000e+000
   H2S                   0.000e+000  0.000e+000   -53.218   -53.194     0.024
   HS-                   0.000e+000  0.000e+000   -53.649   -53.808    -0.160
   S-2                   0.000e+000  0.000e+000   -59.846   -60.399    -0.553
   Fe(HS)2               0.000e+000  0.000e+000  -100.782  -100.758     0.024
   Fe(HS)3-              0.000e+000  0.000e+000  -152.398  -152.529    -0.131
S(6)            1.012e-001
   SO4-2                 5.410e-002  1.480e-002    -1.267    -1.830    -0.563
   FeSO4                 2.018e-002  2.133e-002    -1.695    -1.671     0.024
   CaSO4                 1.535e-002  1.622e-002    -1.814    -1.790     0.024
   MgSO4                 8.212e-003  8.680e-003    -2.086    -2.061     0.024
[...]
 Percent error, 100*(Cat-|An|)/(Cat+|An|)  =  -0.00
                               Iterations  =   1
                                  Total H  = 1.110217e+002
                                  Total O  = 5.591853e+001

----------------------------Distribution of species----------------------------

                                                   Log       Log         Log 
   Species                 Molality    Activity  Molality  Activity     Gamma

   H+                    6.301e-004  5.012e-004    -3.201    -3.300    -0.099
   OH-                   2.836e-011  1.992e-011   -10.547   -10.701    -0.153
   H2O                   5.551e+001  9.971e-001     1.744    -0.001     0.000
Al              1.066e-002
   AlSO4+                5.794e-003  4.313e-003    -2.237    -2.365    -0.128
   Al(SO4)2-             2.605e-003  1.939e-003    -2.584    -2.712    -0.128
   AlF+2                 1.372e-003  4.212e-004    -2.863    -3.376    -0.513
   Al+3                  7.525e-004  9.593e-005    -3.123    -4.018    -0.895
   AlF2+                 1.245e-004  9.268e-005    -3.905    -4.033    -0.128
   AlOH+2                6.176e-006  1.896e-006    -5.209    -5.722    -0.513
   AlHSO4+2              6.244e-007  1.917e-007    -6.205    -6.717    -0.513
   AlF3                  4.878e-007  5.123e-007    -6.312    -6.290     0.021
   Al(OH)2+              3.972e-008  2.956e-008    -7.401    -7.529    -0.128
   AlF4-                 1.203e-010  8.954e-011    -9.920   -10.048    -0.128
   Al(OH)3               8.252e-012  8.666e-012   -11.083   -11.062     0.021
   Al(OH)4-              4.366e-014  3.250e-014   -13.360   -13.488    -0.128
   AlF5-2                2.030e-015  6.231e-016   -14.693   -15.205    -0.513
   AlF6-3                3.901e-021  2.736e-022   -20.409   -21.563    -1.154
C(-4)           1.008e-039
   CH4                   1.008e-039  1.059e-039   -38.996   -38.975     0.021
C(4)            1.028e-005
   CO2                   1.025e-005  1.077e-005    -4.989    -4.968     0.021
   HCO3-                 1.283e-008  9.527e-009    -7.892    -8.021    -0.129
   FeHCO3+               1.229e-008  9.150e-009    -7.910    -8.039    -0.128
   MgHCO3+               3.921e-010  2.918e-010    -9.407    -9.535    -0.128
   CaHCO3+               3.281e-010  2.437e-010    -9.484    -9.613    -0.129
   MnHCO3+               2.795e-010  2.080e-010    -9.554    -9.682    -0.128
   ZnHCO3+               6.850e-011  5.099e-011   -10.164   -10.293    -0.128
   NaHCO3                3.366e-011  3.535e-011   -10.473   -10.452     0.021
   SrHCO3+               5.166e-013  3.837e-013   -12.287   -12.416    -0.129
   CdHCO3+               2.110e-013  1.570e-013   -12.676   -12.804    -0.128
   FeCO3                 1.956e-013  2.054e-013   -12.709   -12.687     0.021
   MnCO3                 1.652e-014  1.735e-014   -13.782   -13.761     0.021
   ZnCO3                 7.201e-015  7.562e-015   -14.143   -14.121     0.021
   CO3-2                 2.930e-015  8.915e-016   -14.533   -15.050    -0.517
   CaCO3                 2.859e-015  3.003e-015   -14.544   -14.522     0.021
   MgCO3                 2.121e-015  2.227e-015   -14.674   -14.652     0.021
   NaCO3-                1.472e-016  1.095e-016   -15.832   -15.960    -0.128
   SrCO3                 1.427e-018  1.498e-018   -17.846   -17.824     0.021
   CdCO3                 3.514e-019  3.691e-019   -18.454   -18.433     0.021
   Zn(CO3)2-2            4.695e-025  1.441e-025   -24.328   -24.841    -0.513
   Cd(CO3)2-2            3.389e-030  1.040e-030   -29.470   -29.983    -0.513
Ca              1.177e-002
   Ca+2                  6.334e-003  2.005e-003    -2.198    -2.698    -0.500
   CaSO4                 5.416e-003  5.688e-003    -2.266    -2.245     0.021
   CaHSO4+               2.244e-005  1.670e-005    -4.649    -4.777    -0.128
   CaF+                  1.030e-008  7.667e-009    -7.987    -8.115    -0.128
   CaHCO3+               3.281e-010  2.437e-010    -9.484    -9.613    -0.129
   CaOH+                 8.894e-013  6.620e-013   -12.051   -12.179    -0.128
   CaCO3                 2.859e-015  3.003e-015   -14.544   -14.522     0.021
Cd              5.277e-006
   CdSO4                 2.035e-006  2.137e-006    -5.691    -5.670     0.021
   Cd+2                  1.698e-006  5.212e-007    -5.770    -6.283    -0.513
   Cd(SO4)2-2            1.085e-006  3.331e-007    -5.964    -6.477    -0.513
   CdCl+                 4.499e-007  3.349e-007    -6.347    -6.475    -0.128
   CdCl2                 8.945e-009  9.393e-009    -8.048    -8.027     0.021
   CdCl3-                5.357e-011  3.988e-011   -10.271   -10.399    -0.128
   CdHCO3+               2.110e-013  1.570e-013   -12.676   -12.804    -0.128
   CdOH+                 1.159e-013  8.625e-014   -12.936   -13.064    -0.128
   CdCO3                 3.514e-019  3.691e-019   -18.454   -18.433     0.021
   Cd(OH)2               8.775e-021  9.215e-021   -20.057   -20.035     0.021
   Cd(CO3)2-2            3.389e-030  1.040e-030   -29.470   -29.983    -0.513
   Cd(OH)3-              2.764e-030  2.057e-030   -29.559   -29.687    -0.128
   Cd(OH)4-2             1.188e-040  0.000e+000   -39.925   -40.438    -0.513
Cl              9.641e-003
   Cl-                   9.511e-003  6.728e-003    -2.022    -2.172    -0.150
   FeCl+                 1.198e-004  8.920e-005    -3.921    -4.050    -0.128
   MnCl+                 9.022e-006  6.716e-006    -5.045    -5.173    -0.128
   ZnCl+                 1.034e-006  7.699e-007    -5.985    -6.114    -0.128
   CdCl+                 4.499e-007  3.349e-007    -6.347    -6.475    -0.128
   MnCl2                 1.878e-008  1.972e-008    -7.726    -7.705     0.021
   CdCl2                 8.945e-009  9.393e-009    -8.048    -8.027     0.021
   ZnCl2                 5.165e-009  5.424e-009    -8.287    -8.266     0.021
   ZnCl3-                5.502e-011  4.095e-011   -10.260   -10.388    -0.128
   CdCl3-                5.357e-011  3.988e-011   -10.271   -10.399    -0.128
   MnCl3-                4.911e-011  3.655e-011   -10.309   -10.437    -0.128
   FeCl+2                6.071e-012  1.864e-012   -11.217   -11.730    -0.513
   ZnCl4-2               4.499e-013  1.381e-013   -12.347   -12.860    -0.513
   FeCl2+                7.525e-014  5.601e-014   -13.124   -13.252    -0.128
   FeCl3                 3.589e-017  3.769e-017   -16.445   -16.424     0.021
Cu(1)           3.181e-005
   Cu+                   3.181e-005  2.149e-005    -4.497    -4.668    -0.170
Cu(2)           2.404e-003
   Cu+2                  1.272e-003  4.095e-004    -2.896    -3.388    -0.492
   CuSO4                 1.132e-003  1.189e-003    -2.946    -2.925     0.021
   CuOH+                 1.141e-008  8.147e-009    -7.943    -8.089    -0.146
   Cu(OH)2               3.225e-011  3.387e-011   -10.491   -10.470     0.021
   Cu(OH)3-              5.454e-021  4.060e-021   -20.263   -20.391    -0.128
   Cu(OH)4-2             5.251e-030  1.612e-030   -29.280   -29.793    -0.513
F               1.624e-003
   AlF+2                 1.372e-003  4.212e-004    -2.863    -3.376    -0.513
   AlF2+                 1.245e-004  9.268e-005    -3.905    -4.033    -0.128
   F-                    6.252e-007  4.391e-007    -6.204    -6.357    -0.153
   AlF3                  4.878e-007  5.123e-007    -6.312    -6.290     0.021
   HF                    3.143e-007  3.300e-007    -6.503    -6.481     0.021
   MgF+                  1.020e-007  7.594e-008    -6.991    -7.120    -0.128
   FeF+                  5.665e-008  4.217e-008    -7.247    -7.375    -0.128
   CaF+                  1.030e-008  7.667e-009    -7.987    -8.115    -0.128
   NaF                   1.588e-009  1.667e-009    -8.799    -8.778     0.021
   MnF+                  9.998e-010  7.442e-010    -9.000    -9.128    -0.128
   AlF4-                 1.203e-010  8.954e-011    -9.920   -10.048    -0.128
   FeF+2                 2.079e-011  6.382e-012   -10.682   -11.195    -0.513
   HF2-                  7.469e-013  5.559e-013   -12.127   -12.255    -0.128
   FeF2+                 1.499e-013  1.116e-013   -12.824   -12.953    -0.128
   AlF5-2                2.030e-015  6.231e-016   -14.693   -15.205    -0.513
   FeF3                  7.392e-017  7.762e-017   -16.131   -16.110     0.021
   AlF6-3                3.901e-021  2.736e-022   -20.409   -21.563    -1.154
   SiF6-2                4.469e-024  1.372e-024   -23.350   -23.863    -0.513
Fe(2)           5.318e-002
   Fe+2                  2.983e-002  9.604e-003    -1.525    -2.018    -0.492
   FeSO4                 2.312e-002  2.428e-002    -1.636    -1.615     0.021
   FeCl+                 1.198e-004  8.920e-005    -3.921    -4.050    -0.128
   FeHSO4+               1.075e-004  7.999e-005    -3.969    -4.097    -0.128
   FeF+                  5.665e-008  4.217e-008    -7.247    -7.375    -0.128
   FeHCO3+               1.229e-008  9.150e-009    -7.910    -8.039    -0.128
   FeOH+                 8.118e-009  6.042e-009    -8.091    -8.219    -0.128
   FeCO3                 1.956e-013  2.054e-013   -12.709   -12.687     0.021
   Fe(HS)2               0.000e+000  0.000e+000   -52.873   -52.852     0.021
   Fe(HS)3-              0.000e+000  0.000e+000   -80.579   -80.707    -0.128
Fe(3)           3.112e-009
   FeSO4+                1.921e-009  1.430e-009    -8.717    -8.845    -0.128
   Fe(SO4)2-             5.975e-010  4.447e-010    -9.224    -9.352    -0.128
   FeOH+2                3.838e-010  1.178e-010    -9.416    -9.929    -0.513
   Fe(OH)2+              1.043e-010  7.762e-011    -9.982   -10.110    -0.128
   Fe+3                  7.195e-011  9.172e-012   -10.143   -11.038    -0.895
   FeF+2                 2.079e-011  6.382e-012   -10.682   -11.195    -0.513
   FeHSO4+2              6.251e-012  1.919e-012   -11.204   -11.717    -0.513
   FeCl+2                6.071e-012  1.864e-012   -11.217   -11.730    -0.513
   FeF2+                 1.499e-013  1.116e-013   -12.824   -12.953    -0.128
   FeCl2+                7.525e-014  5.601e-014   -13.124   -13.252    -0.128
   Fe(OH)3               1.894e-014  1.989e-014   -13.723   -13.701     0.021
   FeF3                  7.392e-017  7.762e-017   -16.131   -16.110     0.021
   Fe2(OH)2+4            4.209e-017  3.736e-019   -16.376   -18.428    -2.052
   FeCl3                 3.589e-017  3.769e-017   -16.445   -16.424     0.021
   Fe(OH)4-              4.850e-020  3.610e-020   -19.314   -19.443    -0.128
   Fe3(OH)4+5            9.732e-024  6.058e-027   -23.012   -26.218    -3.206
H(0)            3.387e-018
   H2                    1.693e-018  1.778e-018   -17.771   -17.750     0.021
K               2.030e-004
   K+                    1.854e-004  1.311e-004    -3.732    -3.882    -0.150
   KSO4-                 1.760e-005  1.310e-005    -4.754    -4.883    -0.128
   KOH                   8.615e-016  9.047e-016   -15.065   -15.044     0.021
Mg              1.603e-002
   MgSO4                 8.308e-003  8.725e-003    -2.080    -2.059     0.021
   Mg+2                  7.726e-003  2.618e-003    -2.112    -2.582    -0.470
   MgF+                  1.020e-007  7.594e-008    -6.991    -7.120    -0.128
   MgHCO3+               3.921e-010  2.918e-010    -9.407    -9.535    -0.128
   MgOH+                 2.541e-011  1.891e-011   -10.595   -10.723    -0.128
   MgCO3                 2.121e-015  2.227e-015   -14.674   -14.652     0.021
Mn(2)           1.360e-003
   Mn+2                  7.610e-004  2.450e-004    -3.119    -3.611    -0.492
   MnSO4                 5.899e-004  6.194e-004    -3.229    -3.208     0.021
   MnCl+                 9.022e-006  6.716e-006    -5.045    -5.173    -0.128
   MnCl2                 1.878e-008  1.972e-008    -7.726    -7.705     0.021
   MnF+                  9.998e-010  7.442e-010    -9.000    -9.128    -0.128
   MnHCO3+               2.795e-010  2.080e-010    -9.554    -9.682    -0.128
   MnCl3-                4.911e-011  3.655e-011   -10.309   -10.437    -0.128
   MnOH+                 1.683e-011  1.253e-011   -10.774   -10.902    -0.128
   MnCO3                 1.652e-014  1.735e-014   -13.782   -13.761     0.021
Mn(3)           1.080e-024
   Mn+3                  1.080e-024  7.572e-026   -23.967   -25.121    -1.154
Na              9.540e-003
   Na+                   8.908e-003  6.599e-003    -2.050    -2.181    -0.130
   NaSO4-                6.317e-004  4.702e-004    -3.199    -3.328    -0.128
   NaF                   1.588e-009  1.667e-009    -8.799    -8.778     0.021
   NaHCO3                3.366e-011  3.535e-011   -10.473   -10.452     0.021
   NaOH                  8.260e-014  8.674e-014   -13.083   -13.062     0.021
   NaCO3-                1.472e-016  1.095e-016   -15.832   -15.960    -0.128
O(0)            0.000e+000
   O2                    0.000e+000  0.000e+000   -56.904   -56.882     0.021
S(-2)           5.350e-027
   H2S                   5.348e-027  5.617e-027   -26.272   -26.251     0.021
   HS-                   1.825e-030  1.282e-030   -29.739   -29.892    -0.153
   S-2                   1.058e-039  3.089e-040   -38.976   -39.510    -0.535
   Fe(HS)2               0.000e+000  0.000e+000   -52.873   -52.852     0.021
   Fe(HS)3-              0.000e+000  0.000e+000   -80.579   -80.707    -0.128
S(6)            1.012e-001
   SO4-2                 4.965e-002  1.422e-002    -1.304    -1.847    -0.543
   FeSO4                 2.312e-002  2.428e-002    -1.636    -1.615     0.021
   MgSO4                 8.308e-003  8.725e-003    -2.080    -2.059     0.021
   AlSO4+                5.794e-003  4.313e-003    -2.237    -2.365    -0.128
   CaSO4                 5.416e-003  5.688e-003    -2.266    -2.245     0.021
   Al(SO4)2-             2.605e-003  1.939e-003    -2.584    -2.712    -0.128
   CuSO4                 1.132e-003  1.189e-003    -2.946    -2.925     0.021
   HSO4-                 9.307e-004  6.928e-004    -3.031    -3.159    -0.128
   NaSO4-                6.317e-004  4.702e-004    -3.199    -3.328    -0.128
   MnSO4                 5.899e-004  6.194e-004    -3.229    -3.208     0.021
   ZnSO4                 1.349e-004  1.417e-004    -3.870    -3.849     0.021
   FeHSO4+               1.075e-004  7.999e-005    -3.969    -4.097    -0.128
   Zn(SO4)2-2            5.334e-005  1.637e-005    -4.273    -4.786    -0.513
   CaHSO4+               2.244e-005  1.670e-005    -4.649    -4.777    -0.128
   KSO4-                 1.760e-005  1.310e-005    -4.754    -4.883    -0.128
   SrSO4                 6.950e-006  7.299e-006    -5.158    -5.137     0.021
   CdSO4                 2.035e-006  2.137e-006    -5.691    -5.670     0.021
   Cd(SO4)2-2            1.085e-006  3.331e-007    -5.964    -6.477    -0.513
   AlHSO4+2              6.244e-007  1.917e-007    -6.205    -6.717    -0.513
   FeSO4+                1.921e-009  1.430e-009    -8.717    -8.845    -0.128
   Fe(SO4)2-             5.975e-010  4.447e-010    -9.224    -9.352    -0.128
   FeHSO4+2              6.251e-012  1.919e-012   -11.204   -11.717    -0.513
Si              1.888e-003
   H4SiO4                1.888e-003  1.982e-003    -2.724    -2.703     0.021
   H3SiO4-               7.835e-010  5.832e-010    -9.106    -9.234    -0.128
   H2SiO4-2              2.579e-019  7.915e-020   -18.589   -19.102    -0.513
   SiF6-2                4.469e-024  1.372e-024   -23.350   -23.863    -0.513
Sr              1.522e-005
   Sr+2                  8.272e-006  2.633e-006    -5.082    -5.580    -0.497
   SrSO4                 6.950e-006  7.299e-006    -5.158    -5.137     0.021
   SrHCO3+               5.166e-013  3.837e-013   -12.287   -12.416    -0.129
   SrOH+                 3.655e-016  2.687e-016   -15.437   -15.571    -0.134
   SrCO3                 1.427e-018  1.498e-018   -17.846   -17.824     0.021
Zn              3.349e-004
   Zn+2                  1.456e-004  4.251e-005    -3.837    -4.371    -0.535
   ZnSO4                 1.349e-004  1.417e-004    -3.870    -3.849     0.021
   Zn(SO4)2-2            5.334e-005  1.637e-005    -4.273    -4.786    -0.513
   ZnCl+                 1.034e-006  7.699e-007    -5.985    -6.114    -0.128
   ZnCl2                 5.165e-009  5.424e-009    -8.287    -8.266     0.021
   ZnOH+                 1.246e-010  9.274e-011    -9.904   -10.033    -0.128
   ZnHCO3+               6.850e-011  5.099e-011   -10.164   -10.293    -0.128
   ZnCl3-                5.502e-011  4.095e-011   -10.260   -10.388    -0.128
   ZnCl4-2               4.499e-013  1.381e-013   -12.347   -12.860    -0.513
   ZnCO3                 7.201e-015  7.562e-015   -14.143   -14.121     0.021
   Zn(OH)2               2.017e-015  2.119e-015   -14.695   -14.674     0.021
   Zn(OH)3-              1.791e-023  1.333e-023   -22.747   -22.875    -0.128
   Zn(CO3)2-2            4.695e-025  1.441e-025   -24.328   -24.841    -0.513
   Zn(OH)4-2             1.369e-032  4.203e-033   -31.864   -32.376    -0.513

------------------------------Saturation indices-------------------------------

	Phase               SI log IAP  log KT

	Al(OH)3(a)       -4.92    5.88   10.80  Al(OH)3
	Albite           -5.77  -23.77  -18.00  NaAlSi3O8
	Alunite           1.56    0.16   -1.40  KAl3(SO4)2(OH)6
	Anhydrite        -0.18   -4.55   -4.36  CaSO4
	Anorthite       -15.36  -35.07  -19.71  CaAl2Si2O8
	Aragonite        -9.41  -17.75   -8.34  CaCO3
	Ca-Montmorillonite  -3.35  -48.38  -45.03  Ca0.165Al2.33Si3.67O10(OH)2
	Calcite          -9.27  -17.75   -8.48  CaCO3
	Cd(OH)2         -13.34    0.31   13.65  Cd(OH)2
	CdSiO3          -11.44   -2.38    9.06  CdSiO3
	CdSO4            -8.03   -8.13   -0.10  CdSO4
	Celestite        -0.79   -7.43   -6.63  SrSO4
	CH4(g)          -36.12  -38.98   -2.86  CH4
	Chalcedony        0.85   -2.70   -3.55  SiO2
	Chlorite(14A)   -44.64   23.74   68.38  Mg5Al2Si3O10(OH)8
	Chrysotile      -25.55    6.65   32.20  Mg3Si2O5(OH)4
	CO2(g)           -3.50   -4.97   -1.47  CO2
	Dolomite        -18.29  -35.38  -17.09  CaMg(CO3)2
	Fe(OH)3(a)       -6.03   -1.14    4.89  Fe(OH)3
	FeS(ppt)        -24.69  -28.61   -3.92  FeS
	Fluorite         -4.81  -15.41  -10.60  CaF2
	Gibbsite         -2.23    5.88    8.11  Al(OH)3
	Goethite         -0.14   -1.14   -1.00  FeOOH
	Gypsum            0.03   -4.55   -4.58  CaSO4:2H2O
	H2(g)           -14.60  -17.75   -3.15  H2
	H2O(g)           -1.51   -0.00    1.51  H2O
	H2S(g)          -25.25  -26.25   -1.00  H2S
	Halite           -5.93   -4.35    1.58  NaCl
	Hausmannite     -37.47   23.56   61.03  Mn3O4
	Hematite          1.73   -2.28   -4.01  Fe2O3
	Illite           -7.14  -47.40  -40.27  K0.6Mg0.25Al2.3Si3.5O10(OH)2
	Jarosite-K      -11.69  -20.90   -9.21  KFe3(SO4)2(OH)6
	K-feldspar       -4.90  -25.47  -20.57  KAlSi3O8
	K-mica           -3.75    8.96   12.70  KAl3Si3O10(OH)2
	Kaolinite        -1.08    6.36    7.43  Al2Si2O5(OH)4
	Mackinawite     -23.96  -28.61   -4.65  FeS
	Manganite       -15.05   10.29   25.34  MnOOH
	Melanterite      -1.66   -3.87   -2.21  FeSO4:7H2O
	O2(g)           -53.99  -56.88   -2.89  O2
	Otavite          -9.23  -21.33  -12.10  CdCO3
	Pyrite          -28.72  -47.20  -18.48  FeS2
	Pyrochroite     -12.21    2.99   15.20  Mn(OH)2
	Pyrolusite      -23.79   17.59   41.38  MnO2
	Quartz            1.28   -2.70   -3.98  SiO2
	Rhodochrosite    -7.53  -18.66  -11.13  MnCO3
	Sepiolite       -15.83   -0.07   15.76  Mg2Si3O7.5OH:3H2O
	Sepiolite(d)    -18.73   -0.07   18.66  Mg2Si3O7.5OH:3H2O
	Siderite         -6.18  -17.07  -10.89  FeCO3
	SiO2(a)           0.01   -2.70   -2.71  SiO2
	Smithsonite      -9.42  -19.42  -10.00  ZnCO3
	Sphalerite      -19.35  -30.96  -11.62  ZnS
	Strontianite    -11.36  -20.63   -9.27  SrCO3
	Sulfur          -16.53  -11.65    4.88  S
	Talc            -20.15    1.25   21.40  Mg3Si4O10(OH)2
	Willemite       -13.58    1.75   15.33  Zn2SiO4
	Zn(OH)2(e)       -9.27    2.23   11.50  Zn(OH)2

------------------
End of simulation.
------------------

------------------------------------
Reading input data for simulation 2.
------------------------------------

-----------
End of run.
-----------

