   Input file: joe
  Output file: joe.out
Database file: ../database/phreeqc.dat

------------------
Reading data base.
------------------

	SOLUTION_MASTER_SPECIES
	SOLUTION_SPECIES
	PHASES
	EXCHANGE_MASTER_SPECIES
	EXCHANGE_SPECIES
	SURFACE_MASTER_SPECIES
	SURFACE_SPECIES
	RATES
	END
------------------------------------
Reading input data for simulation 1.
------------------------------------

	DATABASE ../database/phreeqc.dat
	PRINT
		status false
	SOLUTION 1	WLB ms APW04
		temp	25.
		ph	6.692	charge
		dens	1.0
		pe	4.0
		units	mol/kgw
		Ca	6.227e-03
		Mg	4.850e-03
		Na	1.863e-01
		K	3.200e-03
		Sr	5.800e-04
		Cl	2.000e-01
		C	1.646e-02	as HCO3
		F	2.026e-04
		Si	2.700e-04	as Si(OH)4
	EXCHANGE	1
		equilibrate	1
		X	1.06534
	PURE_PHASES	1
		Calcite		0.0
		Fluorite	0.0
		CO2(g)		-0.94
	EXCHANGE_MASTER_SPECIES
		X	X-	
	EXCHANGE_SPECIES
		X- = X-
		log_k		0.0
		Na+ + X- = NaX
		log_k		0.0
		K+ + X- = KX
		log_k		0.819
		H+ + X- = HX
		log_k		1.     0
		Ca+2 + 2X- = CaX2
		log_k		0.564
		Mg+2 + 2X- = MgX2
		log_k		0.182
		Sr+2 + 2X- = SrX2
		log_k		0.529
	SAVE exchange 2
	END
-------------------------------------------
Beginning of initial solution calculations.
-------------------------------------------

Initial solution 1.	WLB ms APW04

-----------------------------Solution composition------------------------------

	Elements           Molality       Moles

	C                1.646e-002  1.646e-002
	Ca               6.227e-003  6.227e-003
	Cl               2.000e-001  2.000e-001
	F                2.026e-004  2.026e-004
	K                3.200e-003  3.200e-003
	Mg               4.850e-003  4.850e-003
	Na               1.863e-001  1.863e-001
	Si               2.700e-004  2.700e-004
	Sr               5.800e-004  5.800e-004

----------------------------Description of solution----------------------------

                                       pH  =   6.673      Charge balance
                                       pe  =   4.000    
       Specific Conductance (uS/cm, 25 oC) = 21494
                          Density (g/cm3)  =   1.00604
                        Activity of water  =   0.993
                           Ionic strength  =  2.228e-001
                       Mass of water (kg)  =  1.000e+000
                 Total alkalinity (eq/kg)  =  1.261e-002
                       Total CO2 (mol/kg)  =  1.646e-002
                      Temperature (deg C)  =  25.000
                  Electrical balance (eq)  =  1.331e-016
 Percent error, 100*(Cat-|An|)/(Cat+|An|)  =   0.00
                               Iterations  =   8
                                  Total H  = 1.110261e+002
                                  Total O  = 5.555281e+001

----------------------------Distribution of species----------------------------

                                                   Log       Log         Log 
   Species                 Molality    Activity  Molality  Activity     Gamma

   H+                    2.678e-007  2.125e-007    -6.572    -6.673    -0.100
   OH-                   6.696e-008  4.677e-008    -7.174    -7.330    -0.156
   H2O                   5.551e+001  9.929e-001     1.744    -0.003     0.000
C(-4)           0.000e+000
   CH4                   0.000e+000  0.000e+000   -63.397   -63.374     0.022
C(4)            1.646e-002
   HCO3-                 1.144e-002  8.464e-003    -1.942    -2.072    -0.131
   CO2                   3.870e-003  4.073e-003    -2.412    -2.390     0.022
   NaHCO3                6.199e-004  6.526e-004    -3.208    -3.185     0.022
   CaHCO3+               2.714e-004  2.008e-004    -3.566    -3.697    -0.131
   MgHCO3+               2.068e-004  1.535e-004    -3.684    -3.814    -0.129
   SrHCO3+               3.022e-005  2.236e-005    -4.520    -4.651    -0.131
   NaCO3-                6.421e-006  4.768e-006    -5.192    -5.322    -0.129
   CO3-2                 6.235e-006  1.868e-006    -5.205    -5.729    -0.523
   CaCO3                 5.542e-006  5.833e-006    -5.256    -5.234     0.022
   MgCO3                 2.625e-006  2.763e-006    -5.581    -5.559     0.022
   SrCO3                 1.956e-007  2.059e-007    -6.709    -6.686     0.022
Ca              6.227e-003
   Ca+2                  5.947e-003  1.859e-003    -2.226    -2.731    -0.505
   CaHCO3+               2.714e-004  2.008e-004    -3.566    -3.697    -0.131
   CaCO3                 5.542e-006  5.833e-006    -5.256    -5.234     0.022
   CaF+                  2.651e-006  1.968e-006    -5.577    -5.706    -0.129
   CaOH+                 1.941e-009  1.442e-009    -8.712    -8.841    -0.129
Cl              2.000e-001
   Cl-                   2.000e-001  1.408e-001    -0.699    -0.851    -0.153
F               2.026e-004
   F-                    1.740e-004  1.216e-004    -3.759    -3.915    -0.156
   MgF+                  1.677e-005  1.245e-005    -4.776    -4.905    -0.129
   NaF                   9.110e-006  9.590e-006    -5.040    -5.018     0.022
   CaF+                  2.651e-006  1.968e-006    -5.577    -5.706    -0.129
   HF                    3.681e-008  3.874e-008    -7.434    -7.412     0.022
   HF2-                  2.434e-011  1.807e-011   -10.614   -10.743    -0.129
   SiF6-2                9.571e-024  2.910e-024   -23.019   -23.536    -0.517
H(0)            6.075e-025
   H2                    3.038e-025  3.198e-025   -24.517   -24.495     0.022
K               3.200e-003
   K+                    3.200e-003  2.252e-003    -2.495    -2.647    -0.153
   KOH                   3.466e-011  3.649e-011   -10.460   -10.438     0.022
Mg              4.850e-003
   Mg+2                  4.624e-003  1.550e-003    -2.335    -2.810    -0.475
   MgHCO3+               2.068e-004  1.535e-004    -3.684    -3.814    -0.129
   MgF+                  1.677e-005  1.245e-005    -4.776    -4.905    -0.129
   MgCO3                 2.625e-006  2.763e-006    -5.581    -5.559     0.022
   MgOH+                 3.542e-008  2.630e-008    -7.451    -7.580    -0.129
Na              1.863e-001
   Na+                   1.857e-001  1.371e-001    -0.731    -0.863    -0.132
   NaHCO3                6.199e-004  6.526e-004    -3.208    -3.185     0.022
   NaF                   9.110e-006  9.590e-006    -5.040    -5.018     0.022
   NaCO3-                6.421e-006  4.768e-006    -5.192    -5.322    -0.129
   NaOH                  4.020e-009  4.232e-009    -8.396    -8.373     0.022
O(0)            0.000e+000
   O2                    0.000e+000  0.000e+000   -43.418   -43.396     0.022
Si              2.700e-004
   H4SiO4                2.697e-004  2.839e-004    -3.569    -3.547     0.022
   H3SiO4-               2.653e-007  1.970e-007    -6.576    -6.706    -0.129
   H2SiO4-2              2.074e-013  6.305e-014   -12.683   -13.200    -0.517
   SiF6-2                9.571e-024  2.910e-024   -23.019   -23.536    -0.517
Sr              5.800e-004
   Sr+2                  5.496e-004  1.727e-004    -3.260    -3.763    -0.503
   SrHCO3+               3.022e-005  2.236e-005    -4.520    -4.651    -0.131
   SrCO3                 1.956e-007  2.059e-007    -6.709    -6.686     0.022
   SrOH+                 5.652e-011  4.138e-011   -10.248   -10.383    -0.135

------------------------------Saturation indices-------------------------------

	Phase               SI log IAP  log KT

	Aragonite        -0.12   -8.46   -8.34  CaCO3
	Calcite           0.02   -8.46   -8.48  CaCO3
	CH4(g)          -60.51  -63.37   -2.86  CH4
	Chalcedony        0.01   -3.54   -3.55  SiO2
	Chrysotile       -7.69   24.51   32.20  Mg3Si2O5(OH)4
	CO2(g)           -0.92   -2.39   -1.47  CO2
	Dolomite          0.09  -17.00  -17.09  CaMg(CO3)2
	Fluorite          0.04  -10.56  -10.60  CaF2
	H2(g)           -21.35  -24.50   -3.15  H2
	H2O(g)           -1.51   -0.00    1.51  H2O
	Halite           -3.30   -1.71    1.58  NaCl
	O2(g)           -40.50  -43.40   -2.89  O2
	Quartz            0.44   -3.54   -3.98  SiO2
	Sepiolite        -5.33   10.43   15.76  Mg2Si3O7.5OH:3H2O
	Sepiolite(d)     -8.23   10.43   18.66  Mg2Si3O7.5OH:3H2O
	SiO2(a)          -0.83   -3.54   -2.71  SiO2
	Strontianite     -0.22   -9.49   -9.27  SrCO3
	Talc             -3.97   17.43   21.40  Mg3Si4O10(OH)2

-------------------------------------------------------
Beginning of initial exchange-composition calculations.
-------------------------------------------------------

Exchange 1.	

X               1.065e+000 mol

	                               Equiv-    Equivalent      Log 
	Species             Moles      alents      Fraction     Gamma

	NaX              7.282e-001  7.282e-001  6.835e-001     0.000
	CaX2             9.020e-002  1.804e-001  1.693e-001     0.000
	KX               7.886e-002  7.886e-002  7.402e-002     0.000
	MgX2             3.121e-002  6.243e-002  5.860e-002     0.000
	SrX2             7.729e-003  1.546e-002  1.451e-002     0.000
	HX               1.129e-005  1.129e-005  1.060e-005     0.000

-----------------------------------------
Beginning of batch-reaction calculations.
-----------------------------------------

Reaction step 1.

Using solution 1.	WLB ms APW04
Using exchange 1.	Exchange assemblage after simulation 1.
Using pure phase assemblage 1.	

-------------------------------Phase assemblage--------------------------------

                                                      Moles in assemblage
Phase                  SI log IAP  log KT      Initial       Final       Delta

Calcite              0.00   -8.48   -8.48   1.000e+001  1.000e+001  2.560e-004
CO2(g)              -0.94   -2.41   -1.47   1.000e+001  1.000e+001  4.108e-004
Fluorite             0.00  -10.60  -10.60   1.000e+001  1.000e+001  4.154e-006

-----------------------------Exchange composition------------------------------

X               1.065e+000 mol

	                               Equiv-    Equivalent      Log 
	Species             Moles      alents      Fraction     Gamma

	NaX              7.285e-001  7.285e-001  6.838e-001     0.000
	CaX2             8.999e-002  1.800e-001  1.689e-001     0.000
	KX               7.886e-002  7.886e-002  7.403e-002     0.000
	MgX2             3.124e-002  6.248e-002  5.865e-002     0.000
	SrX2             7.733e-003  1.547e-002  1.452e-002     0.000
	HX               1.131e-005  1.131e-005  1.062e-005     0.000

-----------------------------Solution composition------------------------------

	Elements           Molality       Moles

	C                1.579e-002  1.579e-002
	Ca               6.173e-003  6.173e-003
	Cl               2.000e-001  2.000e-001
	F                1.943e-004  1.943e-004
	K                3.193e-003  3.193e-003
	Mg               4.823e-003  4.823e-003
	Na               1.860e-001  1.860e-001
	Si               2.700e-004  2.700e-004
	Sr               5.763e-004  5.763e-004

----------------------------Description of solution----------------------------

                                       pH  =   6.673      Charge balance
                                       pe  =  11.487      Adjusted to redox equilibrium
       Specific Conductance (uS/cm, 25 oC) = 21462
                          Density (g/cm3)  =   1.00601
                        Activity of water  =   0.993
                           Ionic strength  =  2.222e-001
                       Mass of water (kg)  =  1.000e+000
                 Total alkalinity (eq/kg)  =  1.210e-002
                       Total CO2 (mol/kg)  =  1.579e-002
                      Temperature (deg C)  =  25.000
                  Electrical balance (eq)  = -1.057e-014
 Percent error, 100*(Cat-|An|)/(Cat+|An|)  =  -0.00
                               Iterations  =   9
                                  Total H  = 1.110261e+002
                                  Total O  = 5.555122e+001

----------------------------Distribution of species----------------------------

                                                   Log       Log         Log 
   Species                 Molality    Activity  Molality  Activity     Gamma

   H+                    2.677e-007  2.125e-007    -6.572    -6.673    -0.100
   OH-                   6.696e-008  4.678e-008    -7.174    -7.330    -0.156
   H2O                   5.551e+001  9.929e-001     1.744    -0.003     0.000
C(-4)           0.000e+000
   CH4                   0.000e+000  0.000e+000  -123.314  -123.292     0.022
C(4)            1.579e-002
   HCO3-                 1.098e-002  8.124e-003    -1.959    -2.090    -0.131
   CO2                   3.714e-003  3.909e-003    -2.430    -2.408     0.022
   NaHCO3                5.942e-004  6.254e-004    -3.226    -3.204     0.022
   CaHCO3+               2.588e-004  1.915e-004    -3.587    -3.718    -0.131
   MgHCO3+               1.978e-004  1.469e-004    -3.704    -3.833    -0.129
   SrHCO3+               2.890e-005  2.138e-005    -4.539    -4.670    -0.131
   NaCO3-                6.154e-006  4.571e-006    -5.211    -5.340    -0.129
   CO3-2                 5.981e-006  1.793e-006    -5.223    -5.746    -0.523
   CaCO3                 5.287e-006  5.565e-006    -5.277    -5.255     0.022
   MgCO3                 2.512e-006  2.644e-006    -5.600    -5.578     0.022
   SrCO3                 1.871e-007  1.970e-007    -6.728    -6.706     0.022
Ca              6.173e-003
   Ca+2                  5.906e-003  1.847e-003    -2.229    -2.733    -0.505
   CaHCO3+               2.588e-004  1.915e-004    -3.587    -3.718    -0.131
   CaCO3                 5.287e-006  5.565e-006    -5.277    -5.255     0.022
   CaF+                  2.527e-006  1.877e-006    -5.597    -5.727    -0.129
   CaOH+                 1.929e-009  1.433e-009    -8.715    -8.844    -0.129
Cl              2.000e-001
   Cl-                   2.000e-001  1.408e-001    -0.699    -0.851    -0.152
F               1.943e-004
   F-                    1.670e-004  1.166e-004    -3.777    -3.933    -0.156
   MgF+                  1.604e-005  1.191e-005    -4.795    -4.924    -0.129
   NaF                   8.730e-006  9.188e-006    -5.059    -5.037     0.022
   CaF+                  2.527e-006  1.877e-006    -5.597    -5.727    -0.129
   HF                    3.532e-008  3.717e-008    -7.452    -7.430     0.022
   HF2-                  2.240e-011  1.664e-011   -10.650   -10.779    -0.129
   SiF6-2                7.463e-024  2.270e-024   -23.127   -23.644    -0.517
H(0)            6.437e-040
   H2                    3.218e-040  3.387e-040   -39.492   -39.470     0.022
K               3.193e-003
   K+                    3.193e-003  2.248e-003    -2.496    -2.648    -0.152
   KOH                   3.461e-011  3.642e-011   -10.461   -10.439     0.022
Mg              4.823e-003
   Mg+2                  4.607e-003  1.545e-003    -2.337    -2.811    -0.474
   MgHCO3+               1.978e-004  1.469e-004    -3.704    -3.833    -0.129
   MgF+                  1.604e-005  1.191e-005    -4.795    -4.924    -0.129
   MgCO3                 2.512e-006  2.644e-006    -5.600    -5.578     0.022
   MgOH+                 3.531e-008  2.622e-008    -7.452    -7.581    -0.129
Na              1.860e-001
   Na+                   1.853e-001  1.369e-001    -0.732    -0.864    -0.132
   NaHCO3                5.942e-004  6.254e-004    -3.226    -3.204     0.022
   NaF                   8.730e-006  9.188e-006    -5.059    -5.037     0.022
   NaCO3-                6.154e-006  4.571e-006    -5.211    -5.340    -0.129
   NaOH                  4.015e-009  4.226e-009    -8.396    -8.374     0.022
O(0)            6.806e-014
   O2                    3.403e-014  3.582e-014   -13.468   -13.446     0.022
Si              2.700e-004
   H4SiO4                2.697e-004  2.839e-004    -3.569    -3.547     0.022
   H3SiO4-               2.653e-007  1.970e-007    -6.576    -6.706    -0.129
   H2SiO4-2              2.073e-013  6.307e-014   -12.683   -13.200    -0.517
   SiF6-2                7.463e-024  2.270e-024   -23.127   -23.644    -0.517
Sr              5.763e-004
   Sr+2                  5.473e-004  1.721e-004    -3.262    -3.764    -0.503
   SrHCO3+               2.890e-005  2.138e-005    -4.539    -4.670    -0.131
   SrCO3                 1.871e-007  1.970e-007    -6.728    -6.706     0.022
   SrOH+                 5.632e-011  4.124e-011   -10.249   -10.385    -0.135

------------------------------Saturation indices-------------------------------

	Phase               SI log IAP  log KT

	Aragonite        -0.14   -8.48   -8.34  CaCO3
	Calcite           0.00   -8.48   -8.48  CaCO3
	CH4(g)         -120.43 -123.29   -2.86  CH4
	Chalcedony        0.01   -3.54   -3.55  SiO2
	Chrysotile       -7.69   24.51   32.20  Mg3Si2O5(OH)4
	CO2(g)           -0.94   -2.41   -1.47  CO2
	Dolomite          0.05  -17.04  -17.09  CaMg(CO3)2
	Fluorite          0.00  -10.60  -10.60  CaF2
	H2(g)           -36.32  -39.47   -3.15  H2
	H2O(g)           -1.51   -0.00    1.51  H2O
	Halite           -3.30   -1.72    1.58  NaCl
	O2(g)           -10.55  -13.45   -2.89  O2
	Quartz            0.44   -3.54   -3.98  SiO2
	Sepiolite        -5.33   10.43   15.76  Mg2Si3O7.5OH:3H2O
	Sepiolite(d)     -8.23   10.43   18.66  Mg2Si3O7.5OH:3H2O
	SiO2(a)          -0.83   -3.54   -2.71  SiO2
	Strontianite     -0.24   -9.51   -9.27  SrCO3
	Talc             -3.97   17.43   21.40  Mg3Si4O10(OH)2

------------------
End of simulation.
------------------

------------------------------------
Reading input data for simulation 2.
------------------------------------

	SOLUTION 2
		temp	25
		ph	7.0	charge
		dens	1.0
		pe	4.0
		units	mol/kgw
		Cl	0.2
	MIX
		2	0.1
	PURE_PHASES 2
		Calcite 	0.0	0.1
		Fluorite	0.0	0.1
	USE exchange 2
	END
-------------------------------------------
Beginning of initial solution calculations.
-------------------------------------------

Initial solution 2.	

-----------------------------Solution composition------------------------------

	Elements           Molality       Moles

	Cl               2.000e-001  2.000e-001

----------------------------Description of solution----------------------------

                                       pH  =   0.797      Charge balance
                                       pe  =   4.000    
       Specific Conductance (uS/cm, 25 oC) = 73505
                          Density (g/cm3)  =   1.00052
                        Activity of water  =   0.993
                           Ionic strength  =  2.000e-001
                       Mass of water (kg)  =  1.000e+000
                 Total alkalinity (eq/kg)  = -2.000e-001
                    Total carbon (mol/kg)  =  0.000e+000
                       Total CO2 (mol/kg)  =  0.000e+000
                      Temperature (deg C)  =  25.000
                  Electrical balance (eq)  =  5.539e-010
 Percent error, 100*(Cat-|An|)/(Cat+|An|)  =   0.00
                               Iterations  =   7
                                  Total H  = 1.112124e+002
                                  Total O  = 5.550622e+001

----------------------------Distribution of species----------------------------

                                                   Log       Log         Log 
   Species                 Molality    Activity  Molality  Activity     Gamma

   H+                    2.000e-001  1.596e-001    -0.699    -0.797    -0.098
   OH-                   8.811e-014  6.231e-014   -13.055   -13.205    -0.150
   H2O                   5.551e+001  9.932e-001     1.744    -0.003     0.000
Cl              2.000e-001
   Cl-                   2.000e-001  1.424e-001    -0.699    -0.846    -0.147
H(0)            3.442e-013
   H2                    1.721e-013  1.802e-013   -12.764   -12.744     0.020
O(0)            0.000e+000
   O2                    0.000e+000  0.000e+000   -66.918   -66.898     0.020

------------------------------Saturation indices-------------------------------

	Phase               SI log IAP  log KT

	H2(g)            -9.59  -12.74   -3.15  H2
	H2O(g)           -1.51   -0.00    1.51  H2O
	O2(g)           -64.01  -66.90   -2.89  O2

-----------------------------------------
Beginning of batch-reaction calculations.
-----------------------------------------

Reaction step 1.

Using mix 1.	
Using exchange 2.	Exchange assemblage after simulation 1.
Using pure phase assemblage 2.	

Mixture 1.	

	 1.000e-001 Solution 2	                                                       

-------------------------------Phase assemblage--------------------------------

                                                      Moles in assemblage
Phase                  SI log IAP  log KT      Initial       Final       Delta

Calcite              0.00   -8.48   -8.48   1.000e-001  8.766e-002 -1.234e-002
Fluorite             0.00  -10.60  -10.60   1.000e-001  9.999e-002 -8.505e-006

-----------------------------Exchange composition------------------------------

X               1.065e+000 mol

	                               Equiv-    Equivalent      Log 
	Species             Moles      alents      Fraction     Gamma

	NaX              7.078e-001  7.078e-001  6.643e-001     0.000
	CaX2             1.013e-001  2.026e-001  1.902e-001     0.000
	KX               7.850e-002  7.850e-002  7.369e-002     0.000
	MgX2             3.055e-002  6.110e-002  5.736e-002     0.000
	SrX2             7.647e-003  1.529e-002  1.436e-002     0.000
	HX               5.447e-005  5.447e-005  5.113e-005     0.000

-----------------------------Solution composition------------------------------

	Elements           Molality       Moles

	C                1.232e-001  1.234e-002
	Ca               1.022e-002  1.024e-003
	Cl               1.997e-001  2.000e-002
	F                1.699e-004  1.701e-005
	K                3.643e-003  3.648e-004
	Mg               6.872e-003  6.882e-004
	Na               2.075e-001  2.078e-002
	Sr               8.561e-004  8.573e-005

----------------------------Description of solution----------------------------

                                       pH  =   5.938      Charge balance
                                       pe  =  -1.128      Adjusted to redox equilibrium
       Specific Conductance (uS/cm, 25 oC) = 23592
                          Density (g/cm3)  =   1.00808
                        Activity of water  =   0.991
                           Ionic strength  =  2.575e-001
                       Mass of water (kg)  =  1.001e-001
                 Total alkalinity (eq/kg)  =  4.714e-002
                       Total CO2 (mol/kg)  =  1.232e-001
                      Temperature (deg C)  =  25.000
                  Electrical balance (eq)  =  3.844e-011
 Percent error, 100*(Cat-|An|)/(Cat+|An|)  =   0.00
                               Iterations  =  16
                                  Total H  = 1.112120e+001
                                  Total O  = 5.587638e+000

----------------------------Distribution of species----------------------------

                                                   Log       Log         Log 
   Species                 Molality    Activity  Molality  Activity     Gamma

   H+                    1.465e-006  1.154e-006    -5.834    -5.938    -0.103
   OH-                   1.251e-008  8.592e-009    -7.903    -8.066    -0.163
   H2O                   5.551e+001  9.907e-001     1.744    -0.004     0.000
C(-4)           6.367e-016
   CH4                   6.367e-016  6.756e-016   -15.196   -15.170     0.026
C(4)            1.232e-001
   CO2                   7.609e-002  8.074e-002    -1.119    -1.093     0.026
   HCO3-                 4.216e-002  3.082e-002    -1.375    -1.511    -0.136
   NaHCO3                2.450e-003  2.599e-003    -2.611    -2.585     0.026
   CaHCO3+               1.423e-003  1.040e-003    -2.847    -2.983    -0.136
   MgHCO3+               9.398e-004  6.933e-004    -3.027    -3.159    -0.132
   SrHCO3+               1.396e-004  1.020e-004    -3.855    -3.991    -0.136
   CaCO3                 5.245e-006  5.565e-006    -5.280    -5.255     0.026
   NaCO3-                4.740e-006  3.497e-006    -5.324    -5.456    -0.132
   CO3-2                 4.383e-006  1.252e-006    -5.358    -5.902    -0.544
   MgCO3                 2.165e-006  2.297e-006    -5.665    -5.639     0.026
   SrCO3                 1.630e-007  1.730e-007    -6.788    -6.762     0.026
Ca              1.022e-002
   Ca+2                  8.790e-003  2.646e-003    -2.056    -2.577    -0.521
   CaHCO3+               1.423e-003  1.040e-003    -2.847    -2.983    -0.136
   CaCO3                 5.245e-006  5.565e-006    -5.280    -5.255     0.026
   CaF+                  3.045e-006  2.246e-006    -5.516    -5.649    -0.132
   CaOH+                 5.108e-010  3.768e-010    -9.292    -9.424    -0.132
Cl              1.997e-001
   Cl-                   1.997e-001  1.384e-001    -0.700    -0.859    -0.159
F               1.699e-004
   F-                    1.420e-004  9.748e-005    -3.848    -4.011    -0.163
   MgF+                  1.678e-005  1.238e-005    -4.775    -4.907    -0.132
   NaF                   7.929e-006  8.413e-006    -5.101    -5.075     0.026
   CaF+                  3.045e-006  2.246e-006    -5.516    -5.649    -0.132
   HF                    1.590e-007  1.688e-007    -6.799    -6.773     0.026
   HF2-                  8.555e-011  6.311e-011   -10.068   -10.200    -0.132
H(0)            3.209e-013
   H2                    1.604e-013  1.702e-013   -12.795   -12.769     0.026
K               3.643e-003
   K+                    3.643e-003  2.524e-003    -2.439    -2.598    -0.159
   KOH                   7.078e-012  7.510e-012   -11.150   -11.124     0.026
Mg              6.872e-003
   Mg+2                  5.913e-003  1.923e-003    -2.228    -2.716    -0.488
   MgHCO3+               9.398e-004  6.933e-004    -3.027    -3.159    -0.132
   MgF+                  1.678e-005  1.238e-005    -4.775    -4.907    -0.132
   MgCO3                 2.165e-006  2.297e-006    -5.665    -5.639     0.026
   MgOH+                 8.121e-009  5.991e-009    -8.090    -8.223    -0.132
Na              2.075e-001
   Na+                   2.050e-001  1.500e-001    -0.688    -0.824    -0.136
   NaHCO3                2.450e-003  2.599e-003    -2.611    -2.585     0.026
   NaF                   7.929e-006  8.413e-006    -5.101    -5.075     0.026
   NaCO3-                4.740e-006  3.497e-006    -5.324    -5.456    -0.132
   NaOH                  8.015e-010  8.505e-010    -9.096    -9.070     0.026
O(0)            0.000e+000
   O2                    0.000e+000  0.000e+000   -66.876   -66.850     0.026
Sr              8.561e-004
   Sr+2                  7.164e-004  2.164e-004    -3.145    -3.665    -0.520
   SrHCO3+               1.396e-004  1.020e-004    -3.855    -3.991    -0.136
   SrCO3                 1.630e-007  1.730e-007    -6.788    -6.762     0.026
   SrOH+                 1.318e-011  9.527e-012   -10.880   -11.021    -0.141

------------------------------Saturation indices-------------------------------

	Phase               SI log IAP  log KT

	Aragonite        -0.14   -8.48   -8.34  CaCO3
	Calcite           0.00   -8.48   -8.48  CaCO3
	CH4(g)          -12.31  -15.17   -2.86  CH4
	CO2(g)            0.38   -1.09   -1.47  CO2
	Dolomite         -0.01  -17.10  -17.09  CaMg(CO3)2
	Fluorite          0.00  -10.60  -10.60  CaF2
	H2(g)            -9.62  -12.77   -3.15  H2
	H2O(g)           -1.51   -0.00    1.51  H2O
	Halite           -3.26   -1.68    1.58  NaCl
	O2(g)           -63.96  -66.85   -2.89  O2
	Strontianite     -0.30   -9.57   -9.27  SrCO3

------------------
End of simulation.
------------------

------------------------------------
Reading input data for simulation 3.
------------------------------------

	MIX
		2	0.01
	USE pure_phases 2
	USE exchange 2
	END
-----------------------------------------
Beginning of batch-reaction calculations.
-----------------------------------------

Reaction step 1.

Using mix 1.	
Using exchange 2.	Exchange assemblage after simulation 1.
Using pure phase assemblage 2.	

Mixture 1.	

	 1.000e-002 Solution 2	                                                       

-------------------------------Phase assemblage--------------------------------

                                                      Moles in assemblage
Phase                  SI log IAP  log KT      Initial       Final       Delta

Calcite              0.00   -8.48   -8.48   1.000e-001  9.877e-002 -1.226e-003
Fluorite             0.00  -10.60  -10.60   1.000e-001  1.000e-001 -9.031e-007

-----------------------------Exchange composition------------------------------

X               1.065e+000 mol

	                               Equiv-    Equivalent      Log 
	Species             Moles      alents      Fraction     Gamma

	NaX              7.264e-001  7.264e-001  6.819e-001     0.000
	CaX2             9.113e-002  1.823e-001  1.711e-001     0.000
	KX               7.883e-002  7.883e-002  7.399e-002     0.000
	MgX2             3.117e-002  6.234e-002  5.852e-002     0.000
	SrX2             7.724e-003  1.545e-002  1.450e-002     0.000
	HX               5.073e-005  5.073e-005  4.762e-005     0.000

-----------------------------Solution composition------------------------------

	Elements           Molality       Moles

	C                1.224e-001  1.226e-003
	Ca               9.118e-003  9.130e-005
	Cl               1.997e-001  2.000e-003
	F                1.804e-004  1.806e-006
	K                3.632e-003  3.636e-005
	Mg               6.952e-003  6.962e-005
	Na               2.115e-001  2.118e-003
	Sr               8.585e-004  8.596e-006

----------------------------Description of solution----------------------------

                                       pH  =   5.972      Charge balance
                                       pe  =  -1.163      Adjusted to redox equilibrium
       Specific Conductance (uS/cm, 25 oC) = 23743
                          Density (g/cm3)  =   1.00818
                        Activity of water  =   0.991
                           Ionic strength  =  2.584e-001
                       Mass of water (kg)  =  1.001e-002
                 Total alkalinity (eq/kg)  =  4.908e-002
                       Total CO2 (mol/kg)  =  1.224e-001
                      Temperature (deg C)  =  25.000
                  Electrical balance (eq)  =  5.512e-012
 Percent error, 100*(Cat-|An|)/(Cat+|An|)  =   0.00
                               Iterations  =  17
                                  Total H  = 1.112085e+000
                                  Total O  = 5.587403e-001

----------------------------Distribution of species----------------------------

                                                   Log       Log         Log 
   Species                 Molality    Activity  Molality  Activity     Gamma

   H+                    1.354e-006  1.067e-006    -5.868    -5.972    -0.103
   OH-                   1.354e-008  9.295e-009    -7.868    -8.032    -0.163
   H2O                   5.551e+001  9.907e-001     1.744    -0.004     0.000
C(-4)           6.171e-016
   CH4                   6.171e-016  6.550e-016   -15.210   -15.184     0.026
C(4)            1.224e-001
   CO2                   7.337e-002  7.787e-002    -1.134    -1.109     0.026
   HCO3-                 4.400e-002  3.216e-002    -1.357    -1.493    -0.136
   NaHCO3                2.603e-003  2.763e-003    -2.585    -2.559     0.026
   CaHCO3+               1.316e-003  9.616e-004    -2.881    -3.017    -0.136
   MgHCO3+               9.855e-004  7.269e-004    -3.006    -3.139    -0.132
   SrHCO3+               1.449e-004  1.059e-004    -3.839    -3.975    -0.136
   NaCO3-                5.451e-006  4.021e-006    -5.264    -5.396    -0.132
   CaCO3                 5.243e-006  5.565e-006    -5.280    -5.255     0.026
   CO3-2                 4.954e-006  1.413e-006    -5.305    -5.850    -0.545
   MgCO3                 2.455e-006  2.606e-006    -5.610    -5.584     0.026
   SrCO3                 1.831e-007  1.943e-007    -6.737    -6.712     0.026
Ca              9.118e-003
   Ca+2                  7.794e-003  2.344e-003    -2.108    -2.630    -0.522
   CaHCO3+               1.316e-003  9.616e-004    -2.881    -3.017    -0.136
   CaCO3                 5.243e-006  5.565e-006    -5.280    -5.255     0.026
   CaF+                  2.866e-006  2.114e-006    -5.543    -5.675    -0.132
   CaOH+                 4.896e-010  3.611e-010    -9.310    -9.442    -0.132
Cl              1.997e-001
   Cl-                   1.997e-001  1.383e-001    -0.700    -0.859    -0.160
F               1.804e-004
   F-                    1.509e-004  1.036e-004    -3.821    -3.985    -0.163
   MgF+                  1.792e-005  1.322e-005    -4.747    -4.879    -0.132
   NaF                   8.579e-006  9.104e-006    -5.067    -5.041     0.026
   CaF+                  2.866e-006  2.114e-006    -5.543    -5.675    -0.132
   HF                    1.562e-007  1.657e-007    -6.806    -6.781     0.026
   HF2-                  8.928e-011  6.585e-011   -10.049   -10.181    -0.132
H(0)            3.212e-013
   H2                    1.606e-013  1.705e-013   -12.794   -12.768     0.026
K               3.632e-003
   K+                    3.632e-003  2.515e-003    -2.440    -2.599    -0.160
   KOH                   7.629e-012  8.097e-012   -11.118   -11.092     0.026
Mg              6.952e-003
   Mg+2                  5.947e-003  1.932e-003    -2.226    -2.714    -0.488
   MgHCO3+               9.855e-004  7.269e-004    -3.006    -3.139    -0.132
   MgF+                  1.792e-005  1.322e-005    -4.747    -4.879    -0.132
   MgCO3                 2.455e-006  2.606e-006    -5.610    -5.584     0.026
   MgOH+                 8.829e-009  6.513e-009    -8.054    -8.186    -0.132
Na              2.115e-001
   Na+                   2.089e-001  1.528e-001    -0.680    -0.816    -0.136
   NaHCO3                2.603e-003  2.763e-003    -2.585    -2.559     0.026
   NaF                   8.579e-006  9.104e-006    -5.067    -5.041     0.026
   NaCO3-                5.451e-006  4.021e-006    -5.264    -5.396    -0.132
   NaOH                  8.830e-010  9.372e-010    -9.054    -9.028     0.026
O(0)            0.000e+000
   O2                    0.000e+000  0.000e+000   -66.877   -66.851     0.026
Sr              8.585e-004
   Sr+2                  7.134e-004  2.153e-004    -3.147    -3.667    -0.520
   SrHCO3+               1.449e-004  1.059e-004    -3.839    -3.975    -0.136
   SrCO3                 1.831e-007  1.943e-007    -6.737    -6.712     0.026
   SrOH+                 1.419e-011  1.025e-011   -10.848   -10.989    -0.141

------------------------------Saturation indices-------------------------------

	Phase               SI log IAP  log KT

	Aragonite        -0.14   -8.48   -8.34  CaCO3
	Calcite           0.00   -8.48   -8.48  CaCO3
	CH4(g)          -12.32  -15.18   -2.86  CH4
	CO2(g)            0.36   -1.11   -1.47  CO2
	Dolomite          0.05  -17.04  -17.09  CaMg(CO3)2
	Fluorite          0.00  -10.60  -10.60  CaF2
	H2(g)            -9.62  -12.77   -3.15  H2
	H2O(g)           -1.51   -0.00    1.51  H2O
	Halite           -3.26   -1.68    1.58  NaCl
	O2(g)           -63.96  -66.85   -2.89  O2
	Strontianite     -0.25   -9.52   -9.27  SrCO3

------------------
End of simulation.
------------------

------------------------------------
Reading input data for simulation 4.
------------------------------------

	MIX
		2	0.001
	USE pure_phases 2
	USE exchange 2
	END
-----------------------------------------
Beginning of batch-reaction calculations.
-----------------------------------------

Reaction step 1.

Using mix 1.	
Using exchange 2.	Exchange assemblage after simulation 1.
Using pure phase assemblage 2.	

Mixture 1.	

	 1.000e-003 Solution 2	                                                       

-------------------------------Phase assemblage--------------------------------

                                                      Moles in assemblage
Phase                  SI log IAP  log KT      Initial       Final       Delta

Calcite             -0.00   -8.48   -8.48   1.000e-001  9.989e-002 -1.054e-004
Fluorite             0.00  -10.60  -10.60   1.000e-001  1.000e-001 -9.144e-008

-----------------------------Exchange composition------------------------------

X               1.065e+000 mol

	                               Equiv-    Equivalent      Log 
	Species             Moles      alents      Fraction     Gamma

	NaX              7.283e-001  7.283e-001  6.837e-001     0.000
	CaX2             9.009e-002  1.802e-001  1.691e-001     0.000
	KX               7.886e-002  7.886e-002  7.402e-002     0.000
	MgX2             3.123e-002  6.247e-002  5.864e-002     0.000
	SrX2             7.732e-003  1.546e-002  1.452e-002     0.000
	HX               4.567e-005  4.567e-005  4.287e-005     0.000

-----------------------------Solution composition------------------------------

	Elements           Molality       Moles

	C                1.053e-001  1.054e-004
	Ca               8.667e-003  8.677e-006
	Cl               1.998e-001  2.000e-004
	F                1.828e-004  1.830e-007
	K                3.583e-003  3.587e-006
	Mg               6.705e-003  6.712e-006
	Na               2.091e-001  2.093e-004
	Sr               8.246e-004  8.255e-007

----------------------------Description of solution----------------------------

                                       pH  =   6.023      Charge balance
                                       pe  =  -1.219      Adjusted to redox equilibrium
       Specific Conductance (uS/cm, 25 oC) = 23507
                          Density (g/cm3)  =   1.00795
                        Activity of water  =   0.991
                           Ionic strength  =  2.544e-001
                       Mass of water (kg)  =  1.001e-003
                 Total alkalinity (eq/kg)  =  4.511e-002
                       Total CO2 (mol/kg)  =  1.053e-001
                      Temperature (deg C)  =  25.000
                  Electrical balance (eq)  =  5.539e-013
 Percent error, 100*(Cat-|An|)/(Cat+|An|)  =   0.00
                               Iterations  =  20
                                  Total H  = 1.111781e-001
                                  Total O  = 5.582241e-002

----------------------------Distribution of species----------------------------

                                                   Log       Log         Log 
   Species                 Molality    Activity  Molality  Activity     Gamma

   H+                    1.203e-006  9.490e-007    -5.920    -6.023    -0.103
   OH-                   1.520e-008  1.045e-008    -7.818    -7.981    -0.163
   H2O                   5.551e+001  9.910e-001     1.744    -0.004     0.000
C(-4)           5.632e-016
   CH4                   5.632e-016  5.972e-016   -15.249   -15.224     0.025
C(4)            1.053e-001
   CO2                   6.019e-002  6.382e-002    -1.220    -1.195     0.025
   HCO3-                 4.051e-002  2.964e-002    -1.392    -1.528    -0.136
   NaHCO3                2.379e-003  2.522e-003    -2.624    -2.598     0.025
   CaHCO3+               1.169e-003  8.552e-004    -2.932    -3.068    -0.136
   MgHCO3+               8.878e-004  6.553e-004    -3.052    -3.184    -0.132
   SrHCO3+               1.303e-004  9.539e-005    -3.885    -4.021    -0.136
   NaCO3-                5.592e-006  4.128e-006    -5.252    -5.384    -0.132
   CaCO3                 5.248e-006  5.565e-006    -5.280    -5.255     0.025
   CO3-2                 5.109e-006  1.465e-006    -5.292    -5.834    -0.542
   MgCO3                 2.491e-006  2.641e-006    -5.604    -5.578     0.025
   SrCO3                 1.855e-007  1.967e-007    -6.732    -6.706     0.025
Ca              8.667e-003
   Ca+2                  7.491e-003  2.261e-003    -2.125    -2.646    -0.520
   CaHCO3+               1.169e-003  8.552e-004    -2.932    -3.068    -0.136
   CaCO3                 5.248e-006  5.565e-006    -5.280    -5.255     0.025
   CaF+                  2.813e-006  2.077e-006    -5.551    -5.683    -0.132
   CaOH+                 5.310e-010  3.919e-010    -9.275    -9.407    -0.132
Cl              1.998e-001
   Cl-                   1.998e-001  1.386e-001    -0.699    -0.858    -0.159
F               1.828e-004
   F-                    1.533e-004  1.054e-004    -3.814    -3.977    -0.163
   MgF+                  1.783e-005  1.316e-005    -4.749    -4.881    -0.132
   NaF                   8.658e-006  9.181e-006    -5.063    -5.037     0.025
   CaF+                  2.813e-006  2.077e-006    -5.551    -5.683    -0.132
   HF                    1.415e-007  1.501e-007    -6.849    -6.824     0.025
   HF2-                  8.225e-011  6.070e-011   -10.085   -10.217    -0.132
H(0)            3.302e-013
   H2                    1.651e-013  1.751e-013   -12.782   -12.757     0.025
K               3.583e-003
   K+                    3.583e-003  2.486e-003    -2.446    -2.605    -0.159
   KOH                   8.488e-012  9.000e-012   -11.071   -11.046     0.025
Mg              6.705e-003
   Mg+2                  5.797e-003  1.889e-003    -2.237    -2.724    -0.487
   MgHCO3+               8.878e-004  6.553e-004    -3.052    -3.184    -0.132
   MgF+                  1.783e-005  1.316e-005    -4.749    -4.881    -0.132
   MgCO3                 2.491e-006  2.641e-006    -5.604    -5.578     0.025
   MgOH+                 9.705e-009  7.163e-009    -8.013    -8.145    -0.132
Na              2.091e-001
   Na+                   2.067e-001  1.513e-001    -0.685    -0.820    -0.135
   NaHCO3                2.379e-003  2.522e-003    -2.624    -2.598     0.025
   NaF                   8.658e-006  9.181e-006    -5.063    -5.037     0.025
   NaCO3-                5.592e-006  4.128e-006    -5.252    -5.384    -0.132
   NaOH                  9.846e-010  1.044e-009    -9.007    -8.981     0.025
O(0)            0.000e+000
   O2                    0.000e+000  0.000e+000   -66.900   -66.874     0.025
Sr              8.246e-004
   Sr+2                  6.940e-004  2.104e-004    -3.159    -3.677    -0.518
   SrHCO3+               1.303e-004  9.539e-005    -3.885    -4.021    -0.136
   SrCO3                 1.855e-007  1.967e-007    -6.732    -6.706     0.025
   SrOH+                 1.557e-011  1.127e-011   -10.808   -10.948    -0.141

------------------------------Saturation indices-------------------------------

	Phase               SI log IAP  log KT

	Aragonite        -0.14   -8.48   -8.34  CaCO3
	Calcite          -0.00   -8.48   -8.48  CaCO3
	CH4(g)          -12.36  -15.22   -2.86  CH4
	CO2(g)            0.27   -1.20   -1.47  CO2
	Dolomite          0.05  -17.04  -17.09  CaMg(CO3)2
	Fluorite          0.00  -10.60  -10.60  CaF2
	H2(g)            -9.61  -12.76   -3.15  H2
	H2O(g)           -1.51   -0.00    1.51  H2O
	Halite           -3.26   -1.68    1.58  NaCl
	O2(g)           -63.98  -66.87   -2.89  O2
	Strontianite     -0.24   -9.51   -9.27  SrCO3

------------------
End of simulation.
------------------

------------------------------------
Reading input data for simulation 5.
------------------------------------

	MIX
		2	0.0001
	USE pure_phases 2
	USE exchange 2
	END
-----------------------------------------
Beginning of batch-reaction calculations.
-----------------------------------------

Reaction step 1.

Using mix 1.	
Using exchange 2.	Exchange assemblage after simulation 1.
Using pure phase assemblage 2.	

Mixture 1.	

	 1.000e-004 Solution 2	                                                       

-------------------------------Phase assemblage--------------------------------

                                                      Moles in assemblage
Phase                  SI log IAP  log KT      Initial       Final       Delta

Calcite              0.00   -8.48   -8.48   1.000e-001  1.000e-001 -4.410e-006
Fluorite             0.00  -10.60  -10.60   1.000e-001  1.000e-001 -9.407e-009

-----------------------------Exchange composition------------------------------

X               1.065e+000 mol

	                               Equiv-    Equivalent      Log 
	Species             Moles      alents      Fraction     Gamma

	NaX              7.285e-001  7.285e-001  6.838e-001     0.000
	CaX2             9.000e-002  1.800e-001  1.690e-001     0.000
	KX               7.886e-002  7.886e-002  7.403e-002     0.000
	MgX2             3.124e-002  6.248e-002  5.865e-002     0.000
	SrX2             7.733e-003  1.547e-002  1.452e-002     0.000
	HX               2.508e-005  2.508e-005  2.354e-005     0.000

-----------------------------Solution composition------------------------------

	Elements           Molality       Moles

	C                4.409e-002  4.410e-006
	Ca               7.166e-003  7.168e-007
	Cl               1.999e-001  2.000e-005
	F                1.891e-004  1.891e-008
	K                3.359e-003  3.360e-007
	Mg               5.577e-003  5.579e-007
	Na               1.958e-001  1.959e-005
	Sr               6.751e-004  6.753e-008

----------------------------Description of solution----------------------------

                                       pH  =   6.308      Charge balance
                                       pe  =  -1.635      Adjusted to redox equilibrium
       Specific Conductance (uS/cm, 25 oC) = 22327
                          Density (g/cm3)  =   1.00682
                        Activity of water  =   0.992
                           Ionic strength  =  2.358e-001
                       Mass of water (kg)  =  1.000e-004
                 Total alkalinity (eq/kg)  =  2.589e-002
                       Total CO2 (mol/kg)  =  4.409e-002
                      Temperature (deg C)  =  25.000
                  Electrical balance (eq)  =  4.918e-014
 Percent error, 100*(Cat-|An|)/(Cat+|An|)  =   0.00
                               Iterations  =  24
                                  Total H  = 1.110747e-002
                                  Total O  = 5.563852e-003

----------------------------Distribution of species----------------------------

                                                   Log       Log         Log 
   Species                 Molality    Activity  Molality  Activity     Gamma

   H+                    6.223e-007  4.925e-007    -6.206    -6.308    -0.102
   OH-                   2.907e-008  2.017e-008    -7.537    -7.695    -0.159
   H2O                   5.551e+001  9.923e-001     1.744    -0.003     0.000
C(-4)           1.903e-015
   CH4                   1.903e-015  2.009e-015   -14.721   -14.697     0.024
C(4)            4.409e-002
   HCO3-                 2.341e-002  1.724e-002    -1.631    -1.764    -0.133
   CO2                   1.822e-002  1.923e-002    -1.739    -1.716     0.024
   NaHCO3                1.313e-003  1.387e-003    -2.882    -2.858     0.024
   CaHCO3+               6.028e-004  4.439e-004    -3.220    -3.353    -0.133
   MgHCO3+               4.598e-004  3.405e-004    -3.337    -3.468    -0.130
   SrHCO3+               6.730e-005  4.956e-005    -4.172    -4.305    -0.133
   NaCO3-                5.904e-006  4.372e-006    -5.229    -5.359    -0.130
   CO3-2                 5.582e-006  1.641e-006    -5.253    -5.785    -0.532
   CaCO3                 5.271e-006  5.565e-006    -5.278    -5.255     0.024
   MgCO3                 2.504e-006  2.644e-006    -5.601    -5.578     0.024
   SrCO3                 1.865e-007  1.969e-007    -6.729    -6.706     0.024
Ca              7.166e-003
   Ca+2                  6.555e-003  2.018e-003    -2.183    -2.695    -0.512
   CaHCO3+               6.028e-004  4.439e-004    -3.220    -3.353    -0.133
   CaCO3                 5.271e-006  5.565e-006    -5.278    -5.255     0.024
   CaF+                  2.649e-006  1.962e-006    -5.577    -5.707    -0.130
   CaOH+                 9.113e-010  6.749e-010    -9.040    -9.171    -0.130
Cl              1.999e-001
   Cl-                   1.999e-001  1.399e-001    -0.699    -0.854    -0.155
F               1.891e-004
   F-                    1.608e-004  1.116e-004    -3.794    -3.952    -0.159
   MgF+                  1.681e-005  1.245e-005    -4.774    -4.905    -0.130
   NaF                   8.702e-006  9.188e-006    -5.060    -5.037     0.024
   CaF+                  2.649e-006  1.962e-006    -5.577    -5.707    -0.130
   HF                    7.808e-008  8.243e-008    -7.107    -7.084     0.024
   HF2-                  4.766e-011  3.530e-011   -10.322   -10.452    -0.130
H(0)            6.066e-013
   H2                    3.033e-013  3.202e-013   -12.518   -12.495     0.024
K               3.359e-003
   K+                    3.359e-003  2.350e-003    -2.474    -2.629    -0.155
   KOH                   1.555e-011  1.641e-011   -10.808   -10.785     0.024
Mg              5.577e-003
   Mg+2                  5.098e-003  1.688e-003    -2.293    -2.773    -0.480
   MgHCO3+               4.598e-004  3.405e-004    -3.337    -3.468    -0.130
   MgF+                  1.681e-005  1.245e-005    -4.774    -4.905    -0.130
   MgCO3                 2.504e-006  2.644e-006    -5.601    -5.578     0.024
   MgOH+                 1.668e-008  1.235e-008    -7.778    -7.908    -0.130
Na              1.958e-001
   Na+                   1.945e-001  1.431e-001    -0.711    -0.844    -0.133
   NaHCO3                1.313e-003  1.387e-003    -2.882    -2.858     0.024
   NaF                   8.702e-006  9.188e-006    -5.060    -5.037     0.024
   NaCO3-                5.904e-006  4.372e-006    -5.229    -5.359    -0.130
   NaOH                  1.804e-009  1.904e-009    -8.744    -8.720     0.024
O(0)            0.000e+000
   O2                    0.000e+000  0.000e+000   -67.421   -67.398     0.024
Sr              6.751e-004
   Sr+2                  6.076e-004  1.880e-004    -3.216    -3.726    -0.510
   SrHCO3+               6.730e-005  4.956e-005    -4.172    -4.305    -0.133
   SrCO3                 1.865e-007  1.969e-007    -6.729    -6.706     0.024
   SrOH+                 2.667e-011  1.942e-011   -10.574   -10.712    -0.138

------------------------------Saturation indices-------------------------------

	Phase               SI log IAP  log KT

	Aragonite        -0.14   -8.48   -8.34  CaCO3
	Calcite           0.00   -8.48   -8.48  CaCO3
	CH4(g)          -11.84  -14.70   -2.86  CH4
	CO2(g)           -0.25   -1.72   -1.47  CO2
	Dolomite          0.05  -17.04  -17.09  CaMg(CO3)2
	Fluorite          0.00  -10.60  -10.60  CaF2
	H2(g)            -9.34  -12.49   -3.15  H2
	H2O(g)           -1.51   -0.00    1.51  H2O
	Halite           -3.28   -1.70    1.58  NaCl
	O2(g)           -64.51  -67.40   -2.89  O2
	Strontianite     -0.24   -9.51   -9.27  SrCO3

------------------
End of simulation.
------------------

------------------------------------
Reading input data for simulation 6.
------------------------------------

	MIX
		2	0.00001
	USE pure_phases 2
	USE exchange 2
	END
-----------------------------------------
Beginning of batch-reaction calculations.
-----------------------------------------

Reaction step 1.

Using mix 1.	
Using exchange 2.	Exchange assemblage after simulation 1.
Using pure phase assemblage 2.	

Mixture 1.	

	 1.000e-005 Solution 2	                                                       

-------------------------------Phase assemblage--------------------------------

                                                      Moles in assemblage
Phase                  SI log IAP  log KT      Initial       Final       Delta

Calcite              0.00   -8.48   -8.48   1.000e-001  1.000e-001 -1.885e-007
Fluorite             0.00  -10.60  -10.60   1.000e-001  1.000e-001 -9.179e-010

-----------------------------Exchange composition------------------------------

X               1.065e+000 mol

	                               Equiv-    Equivalent      Log 
	Species             Moles      alents      Fraction     Gamma

	NaX              7.285e-001  7.285e-001  6.838e-001    -0.000
	CaX2             8.999e-002  1.800e-001  1.689e-001    -0.000
	KX               7.886e-002  7.886e-002  7.403e-002    -0.000
	MgX2             3.124e-002  6.248e-002  5.865e-002    -0.000
	SrX2             7.733e-003  1.547e-002  1.452e-002    -0.000
	HX               1.307e-005  1.307e-005  1.227e-005    -0.000

-----------------------------Solution composition------------------------------

	Elements           Molality       Moles

	C                1.885e-002  1.886e-007
	Ca               6.299e-003  6.300e-008
	Cl               2.000e-001  2.000e-006
	F                1.936e-004  1.936e-009
	K                3.215e-003  3.215e-008
	Mg               4.919e-003  4.920e-008
	Na               1.873e-001  1.873e-006
	Sr               5.889e-004  5.889e-009

----------------------------Description of solution----------------------------

                                       pH  =   6.607      Charge balance
                                       pe  =  -2.179      Adjusted to redox equilibrium
       Specific Conductance (uS/cm, 25 oC) = 21575
                          Density (g/cm3)  =   1.00611
                        Activity of water  =   0.993
                           Ionic strength  =  2.240e-001
                       Mass of water (kg)  =  1.000e-005
                 Total alkalinity (eq/kg)  =  1.391e-002
                       Total CO2 (mol/kg)  =  1.885e-002
                      Temperature (deg C)  =  25.000
                  Electrical balance (eq)  =  5.539e-015
 Percent error, 100*(Cat-|An|)/(Cat+|An|)  =   0.00
                               Iterations  =  25
                                  Total H  = 1.110362e-003
                                  Total O  = 5.556278e-004

----------------------------Distribution of species----------------------------

                                                   Log       Log         Log 
   Species                 Molality    Activity  Molality  Activity     Gamma

   H+                    3.114e-007  2.471e-007    -6.507    -6.607    -0.101
   OH-                   5.763e-008  4.023e-008    -7.239    -7.395    -0.156
   H2O                   5.551e+001  9.929e-001     1.744    -0.003     0.000
C(-4)           4.614e-014
   CH4                   4.614e-014  4.858e-014   -13.336   -13.314     0.022
C(4)            1.885e-002
   HCO3-                 1.262e-002  9.334e-003    -1.899    -2.030    -0.131
   CO2                   4.960e-003  5.222e-003    -2.305    -2.282     0.022
   NaHCO3                6.865e-004  7.228e-004    -3.163    -3.141     0.022
   CaHCO3+               3.011e-004  2.227e-004    -3.521    -3.652    -0.131
   MgHCO3+               2.301e-004  1.708e-004    -3.638    -3.767    -0.129
   SrHCO3+               3.362e-005  2.486e-005    -4.473    -4.604    -0.131
   NaCO3-                6.120e-006  4.543e-006    -5.213    -5.343    -0.129
   CO3-2                 5.925e-006  1.772e-006    -5.227    -5.752    -0.524
   CaCO3                 5.285e-006  5.565e-006    -5.277    -5.255     0.022
   MgCO3                 2.511e-006  2.644e-006    -5.600    -5.578     0.022
   SrCO3                 1.871e-007  1.970e-007    -6.728    -6.706     0.022
Ca              6.299e-003
   Ca+2                  5.990e-003  1.870e-003    -2.223    -2.728    -0.506
   CaHCO3+               3.011e-004  2.227e-004    -3.521    -3.652    -0.131
   CaCO3                 5.285e-006  5.565e-006    -5.277    -5.255     0.022
   CaF+                  2.543e-006  1.888e-006    -5.595    -5.724    -0.129
   CaOH+                 1.680e-009  1.247e-009    -8.775    -8.904    -0.129
Cl              2.000e-001
   Cl-                   2.000e-001  1.407e-001    -0.699    -0.852    -0.153
F               1.936e-004
   F-                    1.661e-004  1.160e-004    -3.780    -3.936    -0.156
   MgF+                  1.614e-005  1.198e-005    -4.792    -4.921    -0.129
   NaF                   8.727e-006  9.188e-006    -5.059    -5.037     0.022
   CaF+                  2.543e-006  1.888e-006    -5.595    -5.724    -0.129
   HF                    4.080e-008  4.296e-008    -7.389    -7.367     0.022
   HF2-                  2.575e-011  1.912e-011   -10.589   -10.719    -0.129
H(0)            1.869e-012
   H2                    9.346e-013  9.841e-013   -12.029   -12.007     0.022
K               3.215e-003
   K+                    3.215e-003  2.262e-003    -2.493    -2.646    -0.153
   KOH                   2.993e-011  3.151e-011   -10.524   -10.502     0.022
Mg              4.919e-003
   Mg+2                  4.670e-003  1.564e-003    -2.331    -2.806    -0.475
   MgHCO3+               2.301e-004  1.708e-004    -3.638    -3.767    -0.129
   MgF+                  1.614e-005  1.198e-005    -4.792    -4.921    -0.129
   MgCO3                 2.511e-006  2.644e-006    -5.600    -5.578     0.022
   MgOH+                 3.074e-008  2.282e-008    -7.512    -7.642    -0.129
Na              1.873e-001
   Na+                   1.866e-001  1.377e-001    -0.729    -0.861    -0.132
   NaHCO3                6.865e-004  7.228e-004    -3.163    -3.141     0.022
   NaF                   8.727e-006  9.188e-006    -5.059    -5.037     0.022
   NaCO3-                6.120e-006  4.543e-006    -5.213    -5.343    -0.129
   NaOH                  3.472e-009  3.656e-009    -8.459    -8.437     0.022
O(0)            0.000e+000
   O2                    0.000e+000  0.000e+000   -68.395   -68.372     0.022
Sr              5.889e-004
   Sr+2                  5.551e-004  1.741e-004    -3.256    -3.759    -0.503
   SrHCO3+               3.362e-005  2.486e-005    -4.473    -4.604    -0.131
   SrCO3                 1.871e-007  1.970e-007    -6.728    -6.706     0.022
   SrOH+                 4.905e-011  3.589e-011   -10.309   -10.445    -0.136

------------------------------Saturation indices-------------------------------

	Phase               SI log IAP  log KT

	Aragonite        -0.14   -8.48   -8.34  CaCO3
	Calcite           0.00   -8.48   -8.48  CaCO3
	CH4(g)          -10.45  -13.31   -2.86  CH4
	CO2(g)           -0.81   -2.28   -1.47  CO2
	Dolomite          0.05  -17.04  -17.09  CaMg(CO3)2
	Fluorite          0.00  -10.60  -10.60  CaF2
	H2(g)            -8.86  -12.01   -3.15  H2
	H2O(g)           -1.51   -0.00    1.51  H2O
	Halite           -3.29   -1.71    1.58  NaCl
	O2(g)           -65.48  -68.37   -2.89  O2
	Strontianite     -0.24   -9.51   -9.27  SrCO3

------------------
End of simulation.
------------------

------------------------------------
Reading input data for simulation 7.
------------------------------------

	MIX
		2	0.000001
	USE pure_phases 2
	USE exchange 2
	END
-----------------------------------------
Beginning of batch-reaction calculations.
-----------------------------------------

Reaction step 1.

Using mix 1.	
Using exchange 2.	Exchange assemblage after simulation 1.
Using pure phase assemblage 2.	

Mixture 1.	

	 1.000e-006 Solution 2	                                                       

-------------------------------Phase assemblage--------------------------------

                                                      Moles in assemblage
Phase                  SI log IAP  log KT      Initial       Final       Delta

Calcite              0.00   -8.48   -8.48   1.000e-001  1.000e-001 -1.600e-008
Fluorite             0.00  -10.60  -10.60   1.000e-001  1.000e-001 -4.712e-011

-----------------------------Exchange composition------------------------------

X               1.065e+000 mol

	                               Equiv-    Equivalent      Log 
	Species             Moles      alents      Fraction     Gamma

	NaX              7.285e-001  7.285e-001  6.838e-001     0.000
	CaX2             8.999e-002  1.800e-001  1.689e-001     0.000
	KX               7.886e-002  7.886e-002  7.403e-002     0.000
	MgX2             3.124e-002  6.248e-002  5.865e-002     0.000
	SrX2             7.733e-003  1.547e-002  1.452e-002     0.000
	HX               1.149e-005  1.149e-005  1.078e-005     0.000

-----------------------------Solution composition------------------------------

	Elements           Molality       Moles

	C                1.610e-002  1.610e-008
	Ca               6.185e-003  6.185e-009
	Cl               2.000e-001  2.000e-007
	F                1.942e-004  1.942e-010
	K                3.195e-003  3.195e-009
	Mg               4.832e-003  4.833e-009
	Na               1.861e-001  1.861e-007
	Sr               5.776e-004  5.776e-010

----------------------------Description of solution----------------------------

                                       pH  =   6.666      Charge balance
                                       pe  =  -2.598      Adjusted to redox equilibrium
       Specific Conductance (uS/cm, 25 oC) = 21472
                          Density (g/cm3)  =   1.00602
                        Activity of water  =   0.993
                           Ionic strength  =  2.224e-001
                       Mass of water (kg)  =  1.000e-006
                 Total alkalinity (eq/kg)  =  1.229e-002
                       Total CO2 (mol/kg)  =  1.610e-002
                      Temperature (deg C)  =  25.000
                  Electrical balance (eq)  =  5.539e-016
 Percent error, 100*(Cat-|An|)/(Cat+|An|)  =   0.00
                               Iterations  =  71
                                  Total H  = 1.110323e-004
                                  Total O  = 5.555452e-005

----------------------------Distribution of species----------------------------

                                                   Log       Log         Log 
   Species                 Molality    Activity  Molality  Activity     Gamma

   H+                    2.721e-007  2.160e-007    -6.565    -6.666    -0.100
   OH-                   6.588e-008  4.602e-008    -7.181    -7.337    -0.156
   H2O                   5.551e+001  9.929e-001     1.744    -0.003     0.000
C(-4)           2.745e-011
   CH4                   2.745e-011  2.889e-011   -10.562   -10.539     0.022
C(4)            1.610e-002
   HCO3-                 1.115e-002  8.249e-003    -1.953    -2.084    -0.131
   CO2                   3.833e-003  4.034e-003    -2.416    -2.394     0.022
   NaHCO3                6.036e-004  6.353e-004    -3.219    -3.197     0.022
   CaHCO3+               2.631e-004  1.947e-004    -3.580    -3.711    -0.131
   MgHCO3+               2.011e-004  1.493e-004    -3.697    -3.826    -0.129
   SrHCO3+               2.938e-005  2.174e-005    -4.532    -4.663    -0.131
   NaCO3-                6.151e-006  4.568e-006    -5.211    -5.340    -0.129
   CO3-2                 5.975e-006  1.791e-006    -5.224    -5.747    -0.523
   CaCO3                 5.287e-006  5.565e-006    -5.277    -5.255     0.022
   MgCO3                 2.512e-006  2.644e-006    -5.600    -5.578     0.022
   SrCO3                 1.871e-007  1.970e-007    -6.728    -6.706     0.022
Ca              6.185e-003
   Ca+2                  5.914e-003  1.850e-003    -2.228    -2.733    -0.505
   CaHCO3+               2.631e-004  1.947e-004    -3.580    -3.711    -0.131
   CaCO3                 5.287e-006  5.565e-006    -5.277    -5.255     0.022
   CaF+                  2.529e-006  1.878e-006    -5.597    -5.726    -0.129
   CaOH+                 1.900e-009  1.411e-009    -8.721    -8.850    -0.129
Cl              2.000e-001
   Cl-                   2.000e-001  1.408e-001    -0.699    -0.851    -0.152
F               1.942e-004
   F-                    1.669e-004  1.166e-004    -3.778    -3.933    -0.156
   MgF+                  1.605e-005  1.192e-005    -4.795    -4.924    -0.129
   NaF                   8.730e-006  9.188e-006    -5.059    -5.037     0.022
   CaF+                  2.529e-006  1.878e-006    -5.597    -5.726    -0.129
   HF                    3.588e-008  3.776e-008    -7.445    -7.423     0.022
   HF2-                  2.275e-011  1.689e-011   -10.643   -10.772    -0.129
H(0)            9.850e-012
   H2                    4.925e-012  5.184e-012   -11.308   -11.285     0.022
K               3.195e-003
   K+                    3.195e-003  2.249e-003    -2.496    -2.648    -0.152
   KOH                   3.406e-011  3.585e-011   -10.468   -10.445     0.022
Mg              4.832e-003
   Mg+2                  4.613e-003  1.547e-003    -2.336    -2.810    -0.474
   MgHCO3+               2.011e-004  1.493e-004    -3.697    -3.826    -0.129
   MgF+                  1.605e-005  1.192e-005    -4.795    -4.924    -0.129
   MgCO3                 2.512e-006  2.644e-006    -5.600    -5.578     0.022
   MgOH+                 3.478e-008  2.582e-008    -7.459    -7.588    -0.129
Na              1.861e-001
   Na+                   1.855e-001  1.370e-001    -0.732    -0.863    -0.132
   NaHCO3                6.036e-004  6.353e-004    -3.219    -3.197     0.022
   NaF                   8.730e-006  9.188e-006    -5.059    -5.037     0.022
   NaCO3-                6.151e-006  4.568e-006    -5.211    -5.340    -0.129
   NaOH                  3.952e-009  4.160e-009    -8.403    -8.381     0.022
O(0)            0.000e+000
   O2                    0.000e+000  0.000e+000   -69.838   -69.815     0.022
Sr              5.776e-004
   Sr+2                  5.480e-004  1.723e-004    -3.261    -3.764    -0.503
   SrHCO3+               2.938e-005  2.174e-005    -4.532    -4.663    -0.131
   SrCO3                 1.871e-007  1.970e-007    -6.728    -6.706     0.022
   SrOH+                 5.547e-011  4.061e-011   -10.256   -10.391    -0.135

------------------------------Saturation indices-------------------------------

	Phase               SI log IAP  log KT

	Aragonite        -0.14   -8.48   -8.34  CaCO3
	Calcite           0.00   -8.48   -8.48  CaCO3
	CH4(g)           -7.68  -10.54   -2.86  CH4
	CO2(g)           -0.93   -2.39   -1.47  CO2
	Dolomite          0.05  -17.04  -17.09  CaMg(CO3)2
	Fluorite          0.00  -10.60  -10.60  CaF2
	H2(g)            -8.14  -11.29   -3.15  H2
	H2O(g)           -1.51   -0.00    1.51  H2O
	Halite           -3.30   -1.71    1.58  NaCl
	O2(g)           -66.92  -69.82   -2.89  O2
	Strontianite     -0.24   -9.51   -9.27  SrCO3

------------------
End of simulation.
------------------

------------------------------------
Reading input data for simulation 8.
------------------------------------

	MIX
		2	0.0000001
	USE pure_phases 2
	USE exchange 2
	END
-----------------------------------------
Beginning of batch-reaction calculations.
-----------------------------------------

Reaction step 1.

Using mix 1.	
Using exchange 2.	Exchange assemblage after simulation 1.
Using pure phase assemblage 2.	

Mixture 1.	

	 1.000e-007 Solution 2	                                                       

-------------------------------Phase assemblage--------------------------------

                                                      Moles in assemblage
Phase                  SI log IAP  log KT      Initial       Final       Delta

Calcite              0.00   -8.48   -8.48   1.000e-001  1.000e-001 -1.483e-009
Fluorite             0.00  -10.60  -10.60   1.000e-001  1.000e-001  4.028e-011

-----------------------------Exchange composition------------------------------

X               1.065e+000 mol

	                               Equiv-    Equivalent      Log 
	Species             Moles      alents      Fraction     Gamma

	NaX              7.285e-001  7.285e-001  6.838e-001     0.000
	CaX2             8.999e-002  1.800e-001  1.689e-001     0.000
	KX               7.886e-002  7.886e-002  7.403e-002     0.000
	MgX2             3.124e-002  6.248e-002  5.865e-002     0.000
	SrX2             7.733e-003  1.547e-002  1.452e-002     0.000
	HX               1.133e-005  1.133e-005  1.063e-005     0.000

-----------------------------Solution composition------------------------------

	Elements           Molality       Moles

	C                1.582e-002  1.583e-009
	Ca               6.173e-003  6.174e-010
	Cl               2.000e-001  2.000e-008
	F                1.943e-004  1.943e-011
	K                3.193e-003  3.193e-010
	Mg               4.824e-003  4.824e-010
	Na               1.860e-001  1.860e-008
	Sr               5.764e-004  5.765e-011

----------------------------Description of solution----------------------------

                                       pH  =   6.672      Charge balance
                                       pe  =  12.714      Adjusted to redox equilibrium
       Specific Conductance (uS/cm, 25 oC) = 21462
                          Density (g/cm3)  =   1.00601
                        Activity of water  =   0.993
                           Ionic strength  =  2.222e-001
                       Mass of water (kg)  =  1.000e-007
                 Total alkalinity (eq/kg)  =  1.212e-002
                       Total CO2 (mol/kg)  =  1.582e-002
                      Temperature (deg C)  =  25.000
                  Electrical balance (eq)  =  5.539e-017
 Percent error, 100*(Cat-|An|)/(Cat+|An|)  =   0.00
                               Iterations  =  65
                                  Total H  = 1.110320e-005
                                  Total O  = 5.555369e-006

----------------------------Distribution of species----------------------------

                                                   Log       Log         Log 
   Species                 Molality    Activity  Molality  Activity     Gamma

   H+                    2.681e-007  2.128e-007    -6.572    -6.672    -0.100
   OH-                   6.685e-008  4.671e-008    -7.175    -7.331    -0.156
   H2O                   5.551e+001  9.929e-001     1.744    -0.003     0.000
C(-4)           0.000e+000
   CH4                   0.000e+000  0.000e+000  -133.117  -133.095     0.022
C(4)            1.582e-002
   HCO3-                 1.100e-002  8.137e-003    -1.959    -2.090    -0.131
   CO2                   3.726e-003  3.921e-003    -2.429    -2.407     0.022
   NaHCO3                5.951e-004  6.264e-004    -3.225    -3.203     0.022
   CaHCO3+               2.592e-004  1.918e-004    -3.586    -3.717    -0.131
   MgHCO3+               1.981e-004  1.471e-004    -3.703    -3.832    -0.129
   SrHCO3+               2.894e-005  2.142e-005    -4.538    -4.669    -0.131
   NaCO3-                6.154e-006  4.570e-006    -5.211    -5.340    -0.129
   CO3-2                 5.981e-006  1.793e-006    -5.223    -5.746    -0.523
   CaCO3                 5.287e-006  5.565e-006    -5.277    -5.255     0.022
   MgCO3                 2.512e-006  2.644e-006    -5.600    -5.578     0.022
   SrCO3                 1.871e-007  1.970e-007    -6.728    -6.706     0.022
Ca              6.173e-003
   Ca+2                  5.906e-003  1.847e-003    -2.229    -2.733    -0.505
   CaHCO3+               2.592e-004  1.918e-004    -3.586    -3.717    -0.131
   CaCO3                 5.287e-006  5.565e-006    -5.277    -5.255     0.022
   CaF+                  2.527e-006  1.877e-006    -5.597    -5.727    -0.129
   CaOH+                 1.926e-009  1.430e-009    -8.715    -8.845    -0.129
Cl              2.000e-001
   Cl-                   2.000e-001  1.408e-001    -0.699    -0.851    -0.152
F               1.943e-004
   F-                    1.670e-004  1.166e-004    -3.777    -3.933    -0.156
   MgF+                  1.604e-005  1.191e-005    -4.795    -4.924    -0.129
   NaF                   8.730e-006  9.188e-006    -5.059    -5.037     0.022
   CaF+                  2.527e-006  1.877e-006    -5.597    -5.727    -0.129
   HF                    3.537e-008  3.723e-008    -7.451    -7.429     0.022
   HF2-                  2.244e-011  1.666e-011   -10.649   -10.778    -0.129
H(0)            0.000e+000
   H2                    0.000e+000  0.000e+000   -41.943   -41.921     0.022
K               3.193e-003
   K+                    3.193e-003  2.248e-003    -2.496    -2.648    -0.152
   KOH                   3.455e-011  3.637e-011   -10.462   -10.439     0.022
Mg              4.824e-003
   Mg+2                  4.607e-003  1.545e-003    -2.337    -2.811    -0.474
   MgHCO3+               1.981e-004  1.471e-004    -3.703    -3.832    -0.129
   MgF+                  1.604e-005  1.191e-005    -4.795    -4.924    -0.129
   MgCO3                 2.512e-006  2.644e-006    -5.600    -5.578     0.022
   MgOH+                 3.525e-008  2.618e-008    -7.453    -7.582    -0.129
Na              1.860e-001
   Na+                   1.853e-001  1.369e-001    -0.732    -0.864    -0.132
   NaHCO3                5.951e-004  6.264e-004    -3.225    -3.203     0.022
   NaF                   8.730e-006  9.188e-006    -5.059    -5.037     0.022
   NaCO3-                6.154e-006  4.570e-006    -5.211    -5.340    -0.129
   NaOH                  4.009e-009  4.220e-009    -8.397    -8.375     0.022
O(0)            5.433e-009
   O2                    2.716e-009  2.859e-009    -8.566    -8.544     0.022
Sr              5.764e-004
   Sr+2                  5.473e-004  1.721e-004    -3.262    -3.764    -0.503
   SrHCO3+               2.894e-005  2.142e-005    -4.538    -4.669    -0.131
   SrCO3                 1.871e-007  1.970e-007    -6.728    -6.706     0.022
   SrOH+                 5.623e-011  4.117e-011   -10.250   -10.385    -0.135

------------------------------Saturation indices-------------------------------

	Phase               SI log IAP  log KT

	Aragonite        -0.14   -8.48   -8.34  CaCO3
	Calcite           0.00   -8.48   -8.48  CaCO3
	CH4(g)         -130.23 -133.09   -2.86  CH4
	CO2(g)           -0.94   -2.41   -1.47  CO2
	Dolomite          0.05  -17.04  -17.09  CaMg(CO3)2
	Fluorite          0.00  -10.60  -10.60  CaF2
	H2(g)           -38.77  -41.92   -3.15  H2
	H2O(g)           -1.51   -0.00    1.51  H2O
	Halite           -3.30   -1.72    1.58  NaCl
	O2(g)            -5.65   -8.54   -2.89  O2
	Strontianite     -0.24   -9.51   -9.27  SrCO3

------------------
End of simulation.
------------------

------------------------------------
Reading input data for simulation 9.
------------------------------------

	MIX
		2	0.00000001
	USE pure_phases 2
	USE exchange 2
	END
-----------------------------------------
Beginning of batch-reaction calculations.
-----------------------------------------

Reaction step 1.

Using mix 1.	
Using exchange 2.	Exchange assemblage after simulation 1.
Using pure phase assemblage 2.	

Mixture 1.	

	 1.000e-008 Solution 2	                                                       

-------------------------------Phase assemblage--------------------------------

                                                      Moles in assemblage
Phase                  SI log IAP  log KT      Initial       Final       Delta

Calcite              0.00   -8.48   -8.48   1.000e-001  1.000e-001 -5.798e-011
Fluorite             0.00  -10.60  -10.60   1.000e-001  1.000e-001  4.903e-011

-----------------------------Exchange composition------------------------------

X               1.065e+000 mol

	                               Equiv-    Equivalent      Log 
	Species             Moles      alents      Fraction     Gamma

	NaX              7.285e-001  7.285e-001  6.838e-001     0.000
	CaX2             8.999e-002  1.800e-001  1.689e-001     0.000
	KX               7.886e-002  7.886e-002  7.403e-002     0.000
	MgX2             3.124e-002  6.248e-002  5.865e-002     0.000
	SrX2             7.733e-003  1.547e-002  1.452e-002     0.000
	HX               1.131e-005  1.131e-005  1.062e-005     0.000

-----------------------------Solution composition------------------------------

	Elements           Molality       Moles

	C                1.580e-002  1.580e-010
	Ca               6.172e-003  6.173e-011
	Cl               2.000e-001  2.000e-009
	F                1.943e-004  1.943e-012
	K                3.193e-003  3.193e-011
	Mg               4.823e-003  4.823e-011
	Na               1.859e-001  1.860e-009
	Sr               5.763e-004  5.763e-012

----------------------------Description of solution----------------------------

                                       pH  =   6.673      Charge balance
                                       pe  =  12.387      Adjusted to redox equilibrium
       Specific Conductance (uS/cm, 25 oC) = 21460
                          Density (g/cm3)  =   1.00600
                        Activity of water  =   0.993
                           Ionic strength  =  2.222e-001
                       Mass of water (kg)  =  1.000e-008
                 Total alkalinity (eq/kg)  =  1.210e-002
                       Total CO2 (mol/kg)  =  1.580e-002
                      Temperature (deg C)  =  25.000
                  Electrical balance (eq)  =  5.539e-018
 Percent error, 100*(Cat-|An|)/(Cat+|An|)  =   0.00
                               Iterations  =  37
                                  Total H  = 1.110319e-006
                                  Total O  = 5.555361e-007

----------------------------Distribution of species----------------------------

                                                   Log       Log         Log 
   Species                 Molality    Activity  Molality  Activity     Gamma

   H+                    2.677e-007  2.125e-007    -6.572    -6.673    -0.100
   OH-                   6.695e-008  4.677e-008    -7.174    -7.330    -0.156
   H2O                   5.551e+001  9.929e-001     1.744    -0.003     0.000
C(-4)           0.000e+000
   CH4                   0.000e+000  0.000e+000  -130.511  -130.489     0.022
C(4)            1.580e-002
   HCO3-                 1.098e-002  8.126e-003    -1.959    -2.090    -0.131
   CO2                   3.715e-003  3.910e-003    -2.430    -2.408     0.022
   NaHCO3                5.943e-004  6.255e-004    -3.226    -3.204     0.022
   CaHCO3+               2.588e-004  1.915e-004    -3.587    -3.718    -0.131
   MgHCO3+               1.978e-004  1.469e-004    -3.704    -3.833    -0.129
   SrHCO3+               2.890e-005  2.139e-005    -4.539    -4.670    -0.131
   NaCO3-                6.155e-006  4.571e-006    -5.211    -5.340    -0.129
   CO3-2                 5.981e-006  1.793e-006    -5.223    -5.746    -0.523
   CaCO3                 5.287e-006  5.565e-006    -5.277    -5.255     0.022
   MgCO3                 2.512e-006  2.644e-006    -5.600    -5.578     0.022
   SrCO3                 1.871e-007  1.970e-007    -6.728    -6.706     0.022
Ca              6.172e-003
   Ca+2                  5.906e-003  1.847e-003    -2.229    -2.733    -0.505
   CaHCO3+               2.588e-004  1.915e-004    -3.587    -3.718    -0.131
   CaCO3                 5.287e-006  5.565e-006    -5.277    -5.255     0.022
   CaF+                  2.527e-006  1.877e-006    -5.597    -5.727    -0.129
   CaOH+                 1.929e-009  1.432e-009    -8.715    -8.844    -0.129
Cl              2.000e-001
   Cl-                   2.000e-001  1.408e-001    -0.699    -0.851    -0.152
F               1.943e-004
   F-                    1.670e-004  1.167e-004    -3.777    -3.933    -0.156
   MgF+                  1.604e-005  1.191e-005    -4.795    -4.924    -0.129
   NaF                   8.730e-006  9.188e-006    -5.059    -5.037     0.022
   CaF+                  2.527e-006  1.877e-006    -5.597    -5.727    -0.129
   HF                    3.532e-008  3.718e-008    -7.452    -7.430     0.022
   HF2-                  2.241e-011  1.664e-011   -10.650   -10.779    -0.129
H(0)            0.000e+000
   H2                    0.000e+000  0.000e+000   -41.292   -41.269     0.022
K               3.193e-003
   K+                    3.193e-003  2.248e-003    -2.496    -2.648    -0.152
   KOH                   3.460e-011  3.642e-011   -10.461   -10.439     0.022
Mg              4.823e-003
   Mg+2                  4.606e-003  1.545e-003    -2.337    -2.811    -0.474
   MgHCO3+               1.978e-004  1.469e-004    -3.704    -3.833    -0.129
   MgF+                  1.604e-005  1.191e-005    -4.795    -4.924    -0.129
   MgCO3                 2.512e-006  2.644e-006    -5.600    -5.578     0.022
   MgOH+                 3.530e-008  2.622e-008    -7.452    -7.581    -0.129
Na              1.859e-001
   Na+                   1.853e-001  1.369e-001    -0.732    -0.864    -0.132
   NaHCO3                5.943e-004  6.255e-004    -3.226    -3.204     0.022
   NaF                   8.730e-006  9.188e-006    -5.059    -5.037     0.022
   NaCO3-                6.155e-006  4.571e-006    -5.211    -5.340    -0.129
   NaOH                  4.015e-009  4.226e-009    -8.396    -8.374     0.022
O(0)            2.699e-010
   O2                    1.350e-010  1.420e-010    -9.870    -9.848     0.022
Sr              5.763e-004
   Sr+2                  5.472e-004  1.720e-004    -3.262    -3.764    -0.503
   SrHCO3+               2.890e-005  2.139e-005    -4.539    -4.670    -0.131
   SrCO3                 1.871e-007  1.970e-007    -6.728    -6.706     0.022
   SrOH+                 5.630e-011  4.123e-011   -10.249   -10.385    -0.135

------------------------------Saturation indices-------------------------------

	Phase               SI log IAP  log KT

	Aragonite        -0.14   -8.48   -8.34  CaCO3
	Calcite           0.00   -8.48   -8.48  CaCO3
	CH4(g)         -127.63 -130.49   -2.86  CH4
	CO2(g)           -0.94   -2.41   -1.47  CO2
	Dolomite          0.05  -17.04  -17.09  CaMg(CO3)2
	Fluorite          0.00  -10.60  -10.60  CaF2
	H2(g)           -38.12  -41.27   -3.15  H2
	H2O(g)           -1.51   -0.00    1.51  H2O
	Halite           -3.30   -1.72    1.58  NaCl
	O2(g)            -6.96   -9.85   -2.89  O2
	Strontianite     -0.24   -9.51   -9.27  SrCO3

------------------
End of simulation.
------------------

-------------------------------------
Reading input data for simulation 10.
-------------------------------------

-----------
End of run.
-----------

