   Input file: kinex
  Output file: kinex.out
Database file: ../database/wateq4f.dat

------------------
Reading data base.
------------------

	SOLUTION_MASTER_SPECIES
	SOLUTION_SPECIES
	PHASES
	EXCHANGE_MASTER_SPECIES
	EXCHANGE_SPECIES
	SURFACE_MASTER_SPECIES
	SURFACE_SPECIES
	RATES
	END
------------------------------------
Reading input data for simulation 1.
------------------------------------

	DATABASE ../database/wateq4f.dat
	RATES
	CaX2       # species 2
	start
	10 DATA 5, "NaX", 1, "CaX2", 2, "MgX2", 2, "KX", 1, "HX", 1
	20 DATA 2, "CaX2", 0.8, 2, "Na+", 2, "Ca+2", -1
	30 krate = PARM(1)/(24*3600) 
	100 REM  Calculate sites and log_master_fraction
	110 RESTORE 10
	120 READ nspec
	130 sites = 0
	140 FOR i = 1 to nspec
	150   READ spec$, equiv
	170   sites = sites + KIN(spec$)*equiv
	180   PUT(equiv, i, 0)           # equiv in (i, 0)
	190 NEXT i
	200 PUT (nspec, 0)               # number of species in (0)
	210 PUT (sites, 1)               # moles of sites stored in (1)
	230 RESTORE 10
	240 READ nspec
	250 FOR i = 1 to nspec
	260   READ spec$, equiv
	270   if (KIN(spec$) > 0) then PUT(LOG10(equiv*KIN(spec$)/sites), i, 1) else PUT (-99, i, 1)
	280 NEXT i
	300 REM Calculate SR for reaction
	310 if (M <= 0) then goto 600
	320 RESTORE 20
	330 READ nspec, spec$, logk, n
	340 q = GET(nspec, 1)
	360 FOR i = 1 to n
	370   READ s$, c
	380   q = q + LA(s$) * c
	390 NEXT i
	410 q = q - GET(nspec, 0)*GET(1, 1)                  # subtract log_master_frac
	420 satrat = 10^(q - logk)
	430 PUT (q - logk, nspec, 2)                         # log SR in (i, 2)
	440 rate = krate*(1-satrat)
	450 moles = rate*TIME
	460 GOTO 1000
	600 REM Calculate rate if KIN is <=0
	610 rate = krate
	620 moles = rate*TIME
	630 GOTO 1000
	1000 REM save rate
	1010 SAVE -moles
	1020 PUT(GET(nspec,0)*moles, nspec, 3)                # delta equivs in (i,3)
	end
	MgX2       # species 3
	start
	20 DATA 3, "MgX2", 0.6, 2, "Na+", 2, "Mg+2", -1
	30 krate = PARM(1)/(24*3600) 
	300 REM Calculate SR for reaction
	310 if (M <= 0) then goto 600
	320 RESTORE 20
	330 READ nspec, spec$, logk, n
	340 q = GET(nspec, 1)
	360 FOR i = 1 to n
	370   READ s$, c
	380   q = q + LA(s$) * c
	390 NEXT i
	410 q = q - GET(nspec, 0)*GET(1, 1)                  # subtract log_master_frac
	420 satrat = 10^(q - logk)
	430 PUT (q - logk, nspec, 2)                         # log SR in (i, 2)
	440 rate = krate*(1-satrat)
	450 moles = rate*TIME
	460 GOTO 1000
	600 REM Calculate rate if KIN is <=0
	610 rate = krate
	620 moles = rate*TIME
	630 GOTO 1000
	1000 REM save rate
	1010 SAVE -moles
	1020 PUT(GET(nspec,0)*moles, nspec, 3)                # delta equivs in (i,3)
	end
	KX       # species 4
	start
	20 DATA 4, "KX", 0.7, 2, "Na+", 1, "K+", -1
	30 krate = PARM(1)/(24*3600) 
	300 REM Calculate SR for reaction
	310 if (M <= 0) then goto 600
	320 RESTORE 20
	330 READ nspec, spec$, logk, n
	340 q = GET(nspec, 1)
	360 FOR i = 1 to n
	370   READ s$, c
	380   q = q + LA(s$) * c
	390 NEXT i
	410 q = q - GET(nspec, 0)*GET(1, 1)                  # subtract log_master_frac
	420 satrat = 10^(q - logk)
	430 PUT (q - logk, nspec, 2)                         # log SR in (i, 2)
	440 rate = krate*(1-satrat)
	450 moles = rate*TIME
	460 GOTO 1000
	600 REM Calculate rate if KIN is <=0
	610 rate = krate
	620 moles = rate*TIME
	630 GOTO 1000
	1000 REM save rate
	1010 SAVE -moles
	1020 PUT(GET(nspec,0)*moles, nspec, 3)                # delta equivs in (i,3)
	end
	HX       # species 5
	start
	20 DATA 5, "HX", 1.0, 2, "Na+", 1, "H+", -1
	30 krate = PARM(1)/(24*3600) 
	300 REM Calculate SR for reaction
	310 if (M <= 0) then goto 600
	320 RESTORE 20
	330 READ nspec, spec$, logk, n
	340 q = GET(nspec, 1)
	360 FOR i = 1 to n
	370   READ s$, c
	380   q = q + LA(s$) * c
	390 NEXT i
	410 q = q - GET(nspec, 0)*GET(1, 1)                  # subtract log_master_frac
	420 satrat = 10^(q - logk)
	430 PUT (q - logk, nspec, 2)                         # log SR in (i, 2)
	440 rate = krate*(1-satrat)
	450 moles = rate*TIME
	460 GOTO 1000
	600 REM Calculate rate if KIN is <=0
	610 rate = krate
	620 moles = rate*TIME
	630 GOTO 1000
	1000 REM save rate
	1010 SAVE -moles
	1020 PUT(GET(nspec,0)*moles, nspec, 3)                # delta equivs in (i,3)
	end
	NaX       # species 1
	start
	10 numspec = get(0)
	20 moles = 0
	30 FOR i = 2 to numspec
	40  moles = moles + GET(i, 3)
	50 NEXT i
	60 SAVE moles
	end
	SOLUTION
		pH  7
		pe 10
	        Ca 10
		Mg 10
		K  10
		Na 10
		Cl 10 charge
	END
-------------------------------------------
Beginning of initial solution calculations.
-------------------------------------------

Initial solution 1.	

-----------------------------Solution composition------------------------------

	Elements           Molality       Moles

	Ca               1.000e-002  1.000e-002
	Cl               6.000e-002  6.000e-002  Charge balance
	K                1.000e-002  1.000e-002
	Mg               1.000e-002  1.000e-002
	Na               1.000e-002  1.000e-002

----------------------------Description of solution----------------------------

                                       pH  =   7.000    
                                       pe  =  10.000    
                        Activity of water  =   0.998
                           Ionic strength  =  8.000e-002
                       Mass of water (kg)  =  1.000e+000
                 Total alkalinity (eq/kg)  =  2.115e-007
                    Total carbon (mol/kg)  =  0.000e+000
                       Total CO2 (mol/kg)  =  0.000e+000
                      Temperature (deg C)  =  25.000
                  Electrical balance (eq)  = -1.386e-016
 Percent error, 100*(Cat-|An|)/(Cat+|An|)  =  -0.00
                               Iterations  =   7
                                  Total H  = 1.110124e+002
                                  Total O  = 5.550622e+001

----------------------------Distribution of species----------------------------

                                                   Log       Log         Log 
   Species                 Molality    Activity  Molality  Activity     Gamma

   OH-                   1.258e-007  9.994e-008    -6.900    -7.000    -0.100
   H+                    1.198e-007  1.000e-007    -6.922    -7.000    -0.078
   H2O                   5.551e+001  9.983e-001     1.744    -0.001     0.000
Ca              1.000e-002
   Ca+2                  1.000e-002  4.166e-003    -2.000    -2.380    -0.380
   CaOH+                 8.690e-009  6.902e-009    -8.061    -8.161    -0.100
Cl              6.000e-002
   Cl-                   6.000e-002  4.684e-002    -1.222    -1.329    -0.108
H(0)            1.390e-037
   H2                    6.950e-038  7.079e-038   -37.158   -37.150     0.008
K               1.000e-002
   K+                    1.000e-002  7.807e-003    -2.000    -2.108    -0.108
Mg              1.000e-002
   Mg+2                  1.000e-002  4.311e-003    -2.000    -2.365    -0.365
   MgOH+                 1.967e-007  1.563e-007    -6.706    -6.806    -0.100
Na              1.000e-002
   Na+                   1.000e-002  7.961e-003    -2.000    -2.099    -0.099
O(0)            1.628e-018
   O2                    8.138e-019  8.289e-019   -18.089   -18.081     0.008

------------------------------Saturation indices-------------------------------

	Phase               SI log IAP  log KT

	Brucite          -5.21   11.63   16.84  Mg(OH)2
	H2(g)           -34.00  -37.15   -3.15  H2
	H2O(g)           -1.51   -0.00    1.51  H2O
	Halite           -5.01   -3.43    1.58  NaCl
	O2(g)           -15.19  -18.08   -2.89  O2
	Portlandite     -11.18   11.62   22.80  Ca(OH)2

------------------
End of simulation.
------------------

------------------------------------
Reading input data for simulation 2.
------------------------------------

	USE solution 1
	EXCHANGE
		CaX2  0
		MgX2  0
		KX    0
		NaX   1e-3
	END
-----------------------------------------
Beginning of batch-reaction calculations.
-----------------------------------------

Reaction step 1.

Using solution 1.	
Using exchange 1.	

-----------------------------Exchange composition------------------------------

X               1.000e-003 mol

	                               Equiv-    Equivalent      Log 
	Species             Moles      alents      Fraction     Gamma

	CaX2             2.400e-004  4.799e-004  4.799e-001     0.000
	KX               1.664e-004  1.664e-004  1.664e-001     0.000
	MgX2             1.580e-004  3.160e-004  3.160e-001     0.000
	NaX              3.773e-005  3.773e-005  3.773e-002     0.000
	HX               4.252e-009  4.252e-009  4.252e-006     0.000

-----------------------------Solution composition------------------------------

	Elements           Molality       Moles

	Ca               9.760e-003  9.760e-003
	Cl               6.000e-002  6.000e-002
	K                9.834e-003  9.834e-003
	Mg               9.842e-003  9.842e-003
	Na               1.096e-002  1.096e-002

----------------------------Description of solution----------------------------

                                       pH  =   7.007      Charge balance
                                       pe  =  10.808      Adjusted to redox equilibrium
                        Activity of water  =   0.998
                           Ionic strength  =  7.960e-002
                       Mass of water (kg)  =  1.000e+000
                 Total alkalinity (eq/kg)  =  2.157e-007
                    Total carbon (mol/kg)  =  0.000e+000
                       Total CO2 (mol/kg)  =  0.000e+000
                      Temperature (deg C)  =  25.000
                  Electrical balance (eq)  =  4.190e-015
 Percent error, 100*(Cat-|An|)/(Cat+|An|)  =   0.00
                               Iterations  =  13
                                  Total H  = 1.110124e+002
                                  Total O  = 5.550622e+001

----------------------------Distribution of species----------------------------

                                                   Log       Log         Log 
   Species                 Molality    Activity  Molality  Activity     Gamma

   OH-                   1.279e-007  1.016e-007    -6.893    -6.993    -0.100
   H+                    1.178e-007  9.837e-008    -6.929    -7.007    -0.078
   H2O                   5.551e+001  9.983e-001     1.744    -0.001     0.000
Ca              9.760e-003
   Ca+2                  9.760e-003  4.071e-003    -2.011    -2.390    -0.380
   CaOH+                 8.631e-009  6.857e-009    -8.064    -8.164    -0.100
Cl              6.000e-002
   Cl-                   6.000e-002  4.686e-002    -1.222    -1.329    -0.107
H(0)            3.259e-039
   H2                    1.629e-039  1.660e-039   -38.788   -38.780     0.008
K               9.834e-003
   K+                    9.834e-003  7.681e-003    -2.007    -2.115    -0.107
Mg              9.842e-003
   Mg+2                  9.842e-003  4.248e-003    -2.007    -2.372    -0.365
   MgOH+                 1.970e-007  1.565e-007    -6.705    -6.805    -0.100
Na              1.096e-002
   Na+                   1.096e-002  8.730e-003    -1.960    -2.059    -0.099
O(0)            2.962e-015
   O2                    1.481e-015  1.508e-015   -14.829   -14.822     0.008

------------------------------Saturation indices-------------------------------

	Phase               SI log IAP  log KT

	Brucite          -5.20   11.64   16.84  Mg(OH)2
	H2(g)           -35.63  -38.78   -3.15  H2
	H2O(g)           -1.51   -0.00    1.51  H2O
	Halite           -4.97   -3.39    1.58  NaCl
	O2(g)           -11.93  -14.82   -2.89  O2
	Portlandite     -11.18   11.62   22.80  Ca(OH)2

------------------
End of simulation.
------------------

------------------------------------
Reading input data for simulation 3.
------------------------------------

	USE solution 1
	KINETICS
		cvode
		steps 20 in 10 steps
	     CaX2
		  formula   Ca  1  
		  parms   1           # rate constant in per day
	          m 0
	     MgX2
		  formula   Mg  1  
		  parms   1           # rate constant in per day
	          m 0
	     KX
		  formula   K  1  
		  parms   1           # rate constant in per day
	          m 0
	     HX
		  formula   H  1  
		  parms   1           # rate constant in per day
	          m 0
	     NaX
		  formula   Na  1 
	          m 1e-3
	INCREMENTAL_REACTIONS
	PRINT
		warnings 1
	USER_PRINT
	10 sites = GET(1)
	20 print "Total equivalents:         ", sites
	40 print "equiv frac NaX:            ", 10^get(1,1)
	50 print "equiv frac CaX2:           ", 10^get(2,1)
	60 print "equiv frac MgX2:           ", 10^get(3,1)
	70 print "equiv frac KX:             ", 10^get(4,1)
	80 print "equiv frac HX:             ", 10^get(5,1)
	SELECTED_OUTPUT
		file kinex.sel
		reset false
		step
	USER_PUNCH
	heading Na_eq_frac Ca_eq_frac Mg_eq_frac K_eq_frac H_eq_frac
	40 PUNCH 10^get(1,1)
	50 PUNCH 10^get(2,1)
	60 PUNCH 10^get(3,1)
	70 PUNCH 10^get(4,1)
	80 PUNCH 10^get(5,1)
	END
-----------------------------------------
Beginning of batch-reaction calculations.
-----------------------------------------

Reaction step 1.

Using solution 1.	
Using kinetics 1.	Kinetics defined in simulation 3.

Kinetics 1.	Kinetics defined in simulation 3.

	Time step: 2 seconds  (Incremented time: 2 seconds)

	Rate name       Delta Moles Total Moles   Reactant        Coefficient

	CaX2             2.315e-005  2.315e-005   Ca                        1
	MgX2             2.315e-005  2.315e-005   Mg                        1
	KX               2.308e-005  2.308e-005   K                         1
	HX               9.071e-008  9.071e-008   H                         1
	NaX             -1.158e-004  8.842e-004   Na                        1

----------------------------------User print-----------------------------------

Total equivalents:           1.0000e-003 
equiv frac NaX:              8.7180e-001 
equiv frac CaX2:             5.1276e-002 
equiv frac MgX2:             5.1273e-002 
equiv frac KX:               2.5561e-002 
equiv frac HX:               8.6830e-005 

-----------------------------Solution composition------------------------------

	Elements           Molality       Moles

	Ca               9.977e-003  9.977e-003
	Cl               6.000e-002  6.000e-002
	K                9.977e-003  9.977e-003
	Mg               9.977e-003  9.977e-003
	Na               1.012e-002  1.012e-002

----------------------------Description of solution----------------------------

                                       pH  =   7.084      Charge balance
                                       pe  =  11.008      Adjusted to redox equilibrium
                        Activity of water  =   0.998
                           Ionic strength  =  7.995e-002
                       Mass of water (kg)  =  1.000e+000
                 Total alkalinity (eq/kg)  =  3.022e-007
                    Total carbon (mol/kg)  =  0.000e+000
                       Total CO2 (mol/kg)  =  0.000e+000
                      Temperature (deg C)  =  25.000
                  Electrical balance (eq)  =  3.130e-011
 Percent error, 100*(Cat-|An|)/(Cat+|An|)  =   0.00
                               Iterations  = 133
                                  Total H  = 1.110124e+002
                                  Total O  = 5.550622e+001

----------------------------Distribution of species----------------------------

                                                   Log       Log         Log 
   Species                 Molality    Activity  Molality  Activity     Gamma

   OH-                   1.525e-007  1.211e-007    -6.817    -6.917    -0.100
   H+                    9.883e-008  8.249e-008    -7.005    -7.084    -0.078
   H2O                   5.551e+001  9.983e-001     1.744    -0.001     0.000
Ca              9.977e-003
   Ca+2                  9.977e-003  4.157e-003    -2.001    -2.381    -0.380
   CaOH+                 1.051e-008  8.348e-009    -7.978    -8.078    -0.100
Cl              6.000e-002
   Cl-                   6.000e-002  4.684e-002    -1.222    -1.329    -0.107
H(0)            9.131e-040
   H2                    4.566e-040  4.651e-040   -39.340   -39.332     0.008
K               9.977e-003
   K+                    9.977e-003  7.789e-003    -2.001    -2.108    -0.107
Mg              9.977e-003
   Mg+2                  9.977e-003  4.302e-003    -2.001    -2.366    -0.365
   MgOH+                 2.380e-007  1.890e-007    -6.623    -6.724    -0.100
Na              1.012e-002
   Na+                   1.012e-002  8.053e-003    -1.995    -2.094    -0.099
O(0)            3.772e-014
   O2                    1.886e-014  1.921e-014   -13.724   -13.716     0.008

------------------------------Saturation indices-------------------------------

	Phase               SI log IAP  log KT

	Brucite          -5.04   11.80   16.84  Mg(OH)2
	H2(g)           -36.18  -39.33   -3.15  H2
	H2O(g)           -1.51   -0.00    1.51  H2O
	Halite           -5.01   -3.42    1.58  NaCl
	O2(g)           -10.82  -13.72   -2.89  O2
	Portlandite     -11.02   11.78   22.80  Ca(OH)2

Reaction step 2.

Using solution 1.	
Using kinetics 1.	Kinetics defined in simulation 3.

Kinetics 1.	Kinetics defined in simulation 3.

	Time step: 2 seconds  (Incremented time: 4 seconds)

	Rate name       Delta Moles Total Moles   Reactant        Coefficient

	CaX2             2.314e-005  4.629e-005   Ca                        1
	MgX2             2.314e-005  4.628e-005   Mg                        1
	KX               2.293e-005  4.601e-005   K                         1
	HX              -1.114e-008  7.958e-008   H                         1
	NaX             -1.155e-004  7.688e-004   Na                        1

----------------------------------User print-----------------------------------

Total equivalents:           1.0000e-003 
equiv frac NaX:              7.1545e-001 
equiv frac CaX2:             1.1396e-001 
equiv frac MgX2:             1.1395e-001 
equiv frac KX:               5.6564e-002 
equiv frac HX:               7.4420e-005 

-----------------------------Solution composition------------------------------

	Elements           Molality       Moles

	Ca               9.954e-003  9.954e-003
	Cl               6.000e-002  6.000e-002
	K                9.954e-003  9.954e-003
	Mg               9.954e-003  9.954e-003
	Na               1.023e-002  1.023e-002

----------------------------Description of solution----------------------------

                                       pH  =   7.074      Charge balance
                                       pe  =  11.036      Adjusted to redox equilibrium
                        Activity of water  =   0.998
                           Ionic strength  =  7.991e-002
                       Mass of water (kg)  =  1.000e+000
                 Total alkalinity (eq/kg)  =  2.911e-007
                    Total carbon (mol/kg)  =  0.000e+000
                       Total CO2 (mol/kg)  =  0.000e+000
                      Temperature (deg C)  =  25.000
                  Electrical balance (eq)  =  5.287e-011
 Percent error, 100*(Cat-|An|)/(Cat+|An|)  =   0.00
                               Iterations  =  17
                                  Total H  = 1.110124e+002
                                  Total O  = 5.550622e+001

----------------------------Distribution of species----------------------------

                                                   Log       Log         Log 
   Species                 Molality    Activity  Molality  Activity     Gamma

   OH-                   1.493e-007  1.186e-007    -6.826    -6.926    -0.100
   H+                    1.010e-007  8.427e-008    -6.996    -7.074    -0.078
   H2O                   5.551e+001  9.983e-001     1.744    -0.001     0.000
Ca              9.954e-003
   Ca+2                  9.954e-003  4.148e-003    -2.002    -2.382    -0.380
   CaOH+                 1.027e-008  8.155e-009    -7.989    -8.089    -0.100
Cl              6.000e-002
   Cl-                   6.000e-002  4.685e-002    -1.222    -1.329    -0.107
H(0)            8.374e-040
   H2                    4.187e-040  4.265e-040   -39.378   -39.370     0.008
K               9.954e-003
   K+                    9.954e-003  7.772e-003    -2.002    -2.109    -0.107
Mg              9.954e-003
   Mg+2                  9.953e-003  4.292e-003    -2.002    -2.367    -0.365
   MgOH+                 2.324e-007  1.846e-007    -6.634    -6.734    -0.100
Na              1.023e-002
   Na+                   1.023e-002  8.146e-003    -1.990    -2.089    -0.099
O(0)            4.485e-014
   O2                    2.243e-014  2.284e-014   -13.649   -13.641     0.008

------------------------------Saturation indices-------------------------------

	Phase               SI log IAP  log KT

	Brucite          -5.06   11.78   16.84  Mg(OH)2
	H2(g)           -36.22  -39.37   -3.15  H2
	H2O(g)           -1.51   -0.00    1.51  H2O
	Halite           -5.00   -3.42    1.58  NaCl
	O2(g)           -10.75  -13.64   -2.89  O2
	Portlandite     -11.04   11.76   22.80  Ca(OH)2

Reaction step 3.

Using solution 1.	
Using kinetics 1.	Kinetics defined in simulation 3.

Kinetics 1.	Kinetics defined in simulation 3.

	Time step: 2 seconds  (Incremented time: 6 seconds)

	Rate name       Delta Moles Total Moles   Reactant        Coefficient

	CaX2             2.313e-005  6.942e-005   Ca                        1
	MgX2             2.313e-005  6.941e-005   Mg                        1
	KX               2.275e-005  6.876e-005   K                         1
	HX              -1.122e-008  6.836e-008   H                         1
	NaX             -1.153e-004  6.535e-004   Na                        1

----------------------------------User print-----------------------------------

Total equivalents:           1.0000e-003 
equiv frac NaX:              6.3682e-001 
equiv frac CaX2:             1.4555e-001 
equiv frac MgX2:             1.4552e-001 
equiv frac KX:               7.2040e-002 
equiv frac HX:               6.6737e-005 

-----------------------------Solution composition------------------------------

	Elements           Molality       Moles

	Ca               9.931e-003  9.931e-003
	Cl               6.000e-002  6.000e-002
	K                9.931e-003  9.931e-003
	Mg               9.931e-003  9.931e-003
	Na               1.035e-002  1.035e-002

----------------------------Description of solution----------------------------

                                       pH  =   7.065      Charge balance
                                       pe  =  11.038      Adjusted to redox equilibrium
                        Activity of water  =   0.998
                           Ionic strength  =  7.986e-002
                       Mass of water (kg)  =  1.000e+000
                 Total alkalinity (eq/kg)  =  2.798e-007
                    Total carbon (mol/kg)  =  0.000e+000
                       Total CO2 (mol/kg)  =  0.000e+000
                      Temperature (deg C)  =  25.000
                  Electrical balance (eq)  =  7.356e-011
 Percent error, 100*(Cat-|An|)/(Cat+|An|)  =   0.00
                               Iterations  =  13
                                  Total H  = 1.110124e+002
                                  Total O  = 5.550622e+001

----------------------------Distribution of species----------------------------

                                                   Log       Log         Log 
   Species                 Molality    Activity  Molality  Activity     Gamma

   OH-                   1.461e-007  1.160e-007    -6.835    -6.935    -0.100
   H+                    1.032e-007  8.613e-008    -6.986    -7.065    -0.078
   H2O                   5.551e+001  9.983e-001     1.744    -0.001     0.000
Ca              9.931e-003
   Ca+2                  9.931e-003  4.139e-003    -2.003    -2.383    -0.380
   CaOH+                 1.002e-008  7.961e-009    -7.999    -8.099    -0.100
Cl              6.000e-002
   Cl-                   6.000e-002  4.685e-002    -1.222    -1.329    -0.107
H(0)            8.649e-040
   H2                    4.324e-040  4.405e-040   -39.364   -39.356     0.008
K               9.931e-003
   K+                    9.931e-003  7.755e-003    -2.003    -2.110    -0.107
Mg              9.931e-003
   Mg+2                  9.930e-003  4.283e-003    -2.003    -2.368    -0.365
   MgOH+                 2.269e-007  1.802e-007    -6.644    -6.744    -0.100
Na              1.035e-002
   Na+                   1.035e-002  8.238e-003    -1.985    -2.084    -0.099
O(0)            4.205e-014
   O2                    2.102e-014  2.141e-014   -13.677   -13.669     0.008

------------------------------Saturation indices-------------------------------

	Phase               SI log IAP  log KT

	Brucite          -5.08   11.76   16.84  Mg(OH)2
	H2(g)           -36.21  -39.36   -3.15  H2
	H2O(g)           -1.51   -0.00    1.51  H2O
	Halite           -5.00   -3.41    1.58  NaCl
	O2(g)           -10.78  -13.67   -2.89  O2
	Portlandite     -11.05   11.75   22.80  Ca(OH)2

Reaction step 4.

Using solution 1.	
Using kinetics 1.	Kinetics defined in simulation 3.

Kinetics 1.	Kinetics defined in simulation 3.

	Time step: 2 seconds  (Incremented time: 8 seconds)

	Rate name       Delta Moles Total Moles   Reactant        Coefficient

	CaX2             2.312e-005  9.254e-005   Ca                        1
	MgX2             2.310e-005  9.251e-005   Mg                        1
	KX               2.246e-005  9.122e-005   K                         1
	HX              -1.137e-008  5.699e-008   H                         1
	NaX             -1.149e-004  5.386e-004   Na                        1

----------------------------------User print-----------------------------------

Total equivalents:           1.0000e-003 
equiv frac NaX:              5.0958e-001 
equiv frac CaX2:             1.9679e-001 
equiv frac MgX2:             1.9672e-001 
equiv frac KX:               9.6865e-002 
equiv frac HX:               5.4067e-005 

-----------------------------Solution composition------------------------------

	Elements           Molality       Moles

	Ca               9.907e-003  9.907e-003
	Cl               6.000e-002  6.000e-002
	K                9.909e-003  9.909e-003
	Mg               9.907e-003  9.907e-003
	Na               1.046e-002  1.046e-002

----------------------------Description of solution----------------------------

                                       pH  =   7.055      Charge balance
                                       pe  =  11.043      Adjusted to redox equilibrium
                        Activity of water  =   0.998
                           Ionic strength  =  7.981e-002
                       Mass of water (kg)  =  1.000e+000
                 Total alkalinity (eq/kg)  =  2.685e-007
                    Total carbon (mol/kg)  =  0.000e+000
                       Total CO2 (mol/kg)  =  0.000e+000
                      Temperature (deg C)  =  25.000
                  Electrical balance (eq)  =  9.333e-011
 Percent error, 100*(Cat-|An|)/(Cat+|An|)  =   0.00
                               Iterations  =  15
                                  Total H  = 1.110124e+002
                                  Total O  = 5.550622e+001

----------------------------Distribution of species----------------------------

                                                   Log       Log         Log 
   Species                 Molality    Activity  Molality  Activity     Gamma

   OH-                   1.428e-007  1.135e-007    -6.845    -6.945    -0.100
   H+                    1.055e-007  8.809e-008    -6.977    -7.055    -0.078
   H2O                   5.551e+001  9.983e-001     1.744    -0.001     0.000
Ca              9.907e-003
   Ca+2                  9.907e-003  4.130e-003    -2.004    -2.384    -0.380
   CaOH+                 9.779e-009  7.768e-009    -8.010    -8.110    -0.100
Cl              6.000e-002
   Cl-                   6.000e-002  4.685e-002    -1.222    -1.329    -0.107
H(0)            8.832e-040
   H2                    4.416e-040  4.498e-040   -39.355   -39.347     0.008
K               9.909e-003
   K+                    9.909e-003  7.737e-003    -2.004    -2.111    -0.107
Mg              9.907e-003
   Mg+2                  9.907e-003  4.274e-003    -2.004    -2.369    -0.365
   MgOH+                 2.214e-007  1.759e-007    -6.655    -6.755    -0.100
Na              1.046e-002
   Na+                   1.046e-002  8.330e-003    -1.980    -2.079    -0.099
O(0)            4.032e-014
   O2                    2.016e-014  2.054e-014   -13.695   -13.687     0.008

------------------------------Saturation indices-------------------------------

	Phase               SI log IAP  log KT

	Brucite          -5.10   11.74   16.84  Mg(OH)2
	H2(g)           -36.20  -39.35   -3.15  H2
	H2O(g)           -1.51   -0.00    1.51  H2O
	Halite           -4.99   -3.41    1.58  NaCl
	O2(g)           -10.80  -13.69   -2.89  O2
	Portlandite     -11.08   11.72   22.80  Ca(OH)2

Reaction step 5.

Using solution 1.	
Using kinetics 1.	Kinetics defined in simulation 3.

Kinetics 1.	Kinetics defined in simulation 3.

	Time step: 2 seconds  (Incremented time: 10 seconds)

	Rate name       Delta Moles Total Moles   Reactant        Coefficient

	CaX2             2.309e-005  1.156e-004   Ca                        1
	MgX2             2.306e-005  1.156e-004   Mg                        1
	KX               2.205e-005  1.133e-004   K                         1
	HX              -1.154e-008  4.544e-008   H                         1
	NaX             -1.143e-004  4.243e-004   Na                        1

----------------------------------User print-----------------------------------

Total equivalents:           1.0000e-003 
equiv frac NaX:              4.0616e-001 
equiv frac CaX2:             2.3859e-001 
equiv frac MgX2:             2.3846e-001 
equiv frac KX:               1.1674e-001 
equiv frac HX:               4.3581e-005 

-----------------------------Solution composition------------------------------

	Elements           Molality       Moles

	Ca               9.884e-003  9.884e-003
	Cl               6.000e-002  6.000e-002
	K                9.887e-003  9.887e-003
	Mg               9.884e-003  9.884e-003
	Na               1.058e-002  1.058e-002

----------------------------Description of solution----------------------------

                                       pH  =   7.045      Charge balance
                                       pe  =  11.061      Adjusted to redox equilibrium
                        Activity of water  =   0.998
                           Ionic strength  =  7.977e-002
                       Mass of water (kg)  =  1.000e+000
                 Total alkalinity (eq/kg)  =  2.569e-007
                    Total carbon (mol/kg)  =  0.000e+000
                       Total CO2 (mol/kg)  =  0.000e+000
                      Temperature (deg C)  =  25.000
                  Electrical balance (eq)  =  1.121e-010
 Percent error, 100*(Cat-|An|)/(Cat+|An|)  =   0.00
                               Iterations  =  15
                                  Total H  = 1.110124e+002
                                  Total O  = 5.550622e+001

----------------------------Distribution of species----------------------------

                                                   Log       Log         Log 
   Species                 Molality    Activity  Molality  Activity     Gamma

   OH-                   1.396e-007  1.109e-007    -6.855    -6.955    -0.100
   H+                    1.080e-007  9.015e-008    -6.967    -7.045    -0.078
   H2O                   5.551e+001  9.983e-001     1.744    -0.001     0.000
Ca              9.884e-003
   Ca+2                  9.884e-003  4.121e-003    -2.005    -2.385    -0.380
   CaOH+                 9.534e-009  7.573e-009    -8.021    -8.121    -0.100
Cl              6.000e-002
   Cl-                   6.000e-002  4.685e-002    -1.222    -1.329    -0.107
H(0)            8.538e-040
   H2                    4.269e-040  4.348e-040   -39.370   -39.362     0.008
K               9.887e-003
   K+                    9.887e-003  7.721e-003    -2.005    -2.112    -0.107
Mg              9.884e-003
   Mg+2                  9.884e-003  4.264e-003    -2.005    -2.370    -0.365
   MgOH+                 2.158e-007  1.714e-007    -6.666    -6.766    -0.100
Na              1.058e-002
   Na+                   1.058e-002  8.421e-003    -1.976    -2.075    -0.099
O(0)            4.315e-014
   O2                    2.157e-014  2.197e-014   -13.666   -13.658     0.008

------------------------------Saturation indices-------------------------------

	Phase               SI log IAP  log KT

	Brucite          -5.12   11.72   16.84  Mg(OH)2
	H2(g)           -36.21  -39.36   -3.15  H2
	H2O(g)           -1.51   -0.00    1.51  H2O
	Halite           -4.99   -3.40    1.58  NaCl
	O2(g)           -10.77  -13.66   -2.89  O2
	Portlandite     -11.10   11.70   22.80  Ca(OH)2

Reaction step 6.

Using solution 1.	
Using kinetics 1.	Kinetics defined in simulation 3.

Kinetics 1.	Kinetics defined in simulation 3.

	Time step: 2 seconds  (Incremented time: 12 seconds)

	Rate name       Delta Moles Total Moles   Reactant        Coefficient

	CaX2             2.302e-005  1.387e-004   Ca                        1
	MgX2             2.296e-005  1.385e-004   Mg                        1
	KX               2.140e-005  1.347e-004   K                         1
	HX              -1.170e-008  3.375e-008   H                         1
	NaX             -1.133e-004  3.109e-004   Na                        1

----------------------------------User print-----------------------------------

Total equivalents:           1.0000e-003 
equiv frac NaX:              2.7192e-001 
equiv frac CaX2:             2.9325e-001 
equiv frac MgX2:             2.9292e-001 
equiv frac KX:               1.4188e-001 
equiv frac HX:               2.9636e-005 

-----------------------------Solution composition------------------------------

	Elements           Molality       Moles

	Ca               9.861e-003  9.861e-003
	Cl               6.000e-002  6.000e-002
	K                9.865e-003  9.865e-003
	Mg               9.861e-003  9.861e-003
	Na               1.069e-002  1.069e-002

----------------------------Description of solution----------------------------

                                       pH  =   7.035      Charge balance
                                       pe  =  11.088      Adjusted to redox equilibrium
                        Activity of water  =   0.998
                           Ionic strength  =  7.972e-002
                       Mass of water (kg)  =  1.000e+000
                 Total alkalinity (eq/kg)  =  2.452e-007
                    Total carbon (mol/kg)  =  0.000e+000
                       Total CO2 (mol/kg)  =  0.000e+000
                      Temperature (deg C)  =  25.000
                  Electrical balance (eq)  =  1.296e-010
 Percent error, 100*(Cat-|An|)/(Cat+|An|)  =   0.00
                               Iterations  =  27
                                  Total H  = 1.110124e+002
                                  Total O  = 5.550622e+001

----------------------------Distribution of species----------------------------

                                                   Log       Log         Log 
   Species                 Molality    Activity  Molality  Activity     Gamma

   OH-                   1.363e-007  1.082e-007    -6.866    -6.966    -0.100
   H+                    1.106e-007  9.233e-008    -6.956    -7.035    -0.078
   H2O                   5.551e+001  9.983e-001     1.744    -0.001     0.000
Ca              9.861e-003
   Ca+2                  9.861e-003  4.112e-003    -2.006    -2.386    -0.380
   CaOH+                 9.288e-009  7.379e-009    -8.032    -8.132    -0.100
Cl              6.000e-002
   Cl-                   6.000e-002  4.686e-002    -1.222    -1.329    -0.107
H(0)            7.919e-040
   H2                    3.959e-040  4.033e-040   -39.402   -39.394     0.008
K               9.865e-003
   K+                    9.865e-003  7.704e-003    -2.006    -2.113    -0.107
Mg              9.861e-003
   Mg+2                  9.861e-003  4.255e-003    -2.006    -2.371    -0.365
   MgOH+                 2.103e-007  1.670e-007    -6.677    -6.777    -0.100
Na              1.069e-002
   Na+                   1.069e-002  8.512e-003    -1.971    -2.070    -0.099
O(0)            5.016e-014
   O2                    2.508e-014  2.555e-014   -13.601   -13.593     0.008

------------------------------Saturation indices-------------------------------

	Phase               SI log IAP  log KT

	Brucite          -5.14   11.70   16.84  Mg(OH)2
	H2(g)           -36.24  -39.39   -3.15  H2
	H2O(g)           -1.51   -0.00    1.51  H2O
	Halite           -4.98   -3.40    1.58  NaCl
	O2(g)           -10.70  -13.59   -2.89  O2
	Portlandite     -11.12   11.68   22.80  Ca(OH)2

Reaction step 7.

Using solution 1.	
Using kinetics 1.	Kinetics defined in simulation 3.

Kinetics 1.	Kinetics defined in simulation 3.

	Time step: 2 seconds  (Incremented time: 14 seconds)

	Rate name       Delta Moles Total Moles   Reactant        Coefficient

	CaX2             2.282e-005  1.615e-004   Ca                        1
	MgX2             2.265e-005  1.612e-004   Mg                        1
	KX               2.014e-005  1.548e-004   K                         1
	HX              -1.174e-008  2.201e-008   H                         1
	NaX             -1.111e-004  1.999e-004   Na                        1

----------------------------------User print-----------------------------------

Total equivalents:           1.0000e-003 
equiv frac NaX:              1.8648e-001 
equiv frac CaX2:             3.2851e-001 
equiv frac MgX2:             3.2783e-001 
equiv frac KX:               1.5716e-001 
equiv frac HX:               2.0529e-005 

-----------------------------Solution composition------------------------------

	Elements           Molality       Moles

	Ca               9.839e-003  9.839e-003
	Cl               6.000e-002  6.000e-002
	K                9.845e-003  9.845e-003
	Mg               9.839e-003  9.839e-003
	Na               1.080e-002  1.080e-002

----------------------------Description of solution----------------------------

                                       pH  =   7.024      Charge balance
                                       pe  =  11.088      Adjusted to redox equilibrium
                        Activity of water  =   0.998
                           Ionic strength  =  7.968e-002
                       Mass of water (kg)  =  1.000e+000
                 Total alkalinity (eq/kg)  =  2.335e-007
                    Total carbon (mol/kg)  =  0.000e+000
                       Total CO2 (mol/kg)  =  0.000e+000
                      Temperature (deg C)  =  25.000
                  Electrical balance (eq)  =  1.453e-010
 Percent error, 100*(Cat-|An|)/(Cat+|An|)  =   0.00
                               Iterations  =  23
                                  Total H  = 1.110124e+002
                                  Total O  = 5.550622e+001

----------------------------Distribution of species----------------------------

                                                   Log       Log         Log 
   Species                 Molality    Activity  Molality  Activity     Gamma

   OH-                   1.330e-007  1.056e-007    -6.876    -6.976    -0.100
   H+                    1.133e-007  9.460e-008    -6.946    -7.024    -0.078
   H2O                   5.551e+001  9.983e-001     1.744    -0.001     0.000
Ca              9.839e-003
   Ca+2                  9.839e-003  4.103e-003    -2.007    -2.387    -0.380
   CaOH+                 9.045e-009  7.186e-009    -8.044    -8.144    -0.100
Cl              6.000e-002
   Cl-                   6.000e-002  4.686e-002    -1.222    -1.329    -0.107
H(0)            8.314e-040
   H2                    4.157e-040  4.234e-040   -39.381   -39.373     0.008
K               9.845e-003
   K+                    9.845e-003  7.689e-003    -2.007    -2.114    -0.107
Mg              9.839e-003
   Mg+2                  9.839e-003  4.246e-003    -2.007    -2.372    -0.365
   MgOH+                 2.048e-007  1.627e-007    -6.689    -6.789    -0.100
Na              1.080e-002
   Na+                   1.080e-002  8.600e-003    -1.967    -2.065    -0.099
O(0)            4.550e-014
   O2                    2.275e-014  2.317e-014   -13.643   -13.635     0.008

------------------------------Saturation indices-------------------------------

	Phase               SI log IAP  log KT

	Brucite          -5.17   11.67   16.84  Mg(OH)2
	H2(g)           -36.22  -39.37   -3.15  H2
	H2O(g)           -1.51   -0.00    1.51  H2O
	Halite           -4.98   -3.39    1.58  NaCl
	O2(g)           -10.74  -13.64   -2.89  O2
	Portlandite     -11.14   11.66   22.80  Ca(OH)2

Reaction step 8.

Using solution 1.	
Using kinetics 1.	Kinetics defined in simulation 3.

Kinetics 1.	Kinetics defined in simulation 3.

	Time step: 2 seconds  (Incremented time: 16 seconds)

	Rate name       Delta Moles Total Moles   Reactant        Coefficient

	CaX2             2.189e-005  1.834e-004   Ca                        1
	MgX2             2.124e-005  1.824e-004   Mg                        1
	KX               1.703e-005  1.719e-004   K                         1
	HX              -1.117e-008  1.084e-008   H                         1
	NaX             -1.033e-004  9.658e-005   Na                        1

----------------------------------User print-----------------------------------

Total equivalents:           1.0000e-003 
equiv frac NaX:              8.3741e-002 
equiv frac CaX2:             3.7244e-001 
equiv frac MgX2:             3.7008e-001 
equiv frac KX:               1.7372e-001 
equiv frac HX:               9.7468e-006 

-----------------------------Solution composition------------------------------

	Elements           Molality       Moles

	Ca               9.817e-003  9.817e-003
	Cl               6.000e-002  6.000e-002
	K                9.828e-003  9.828e-003
	Mg               9.818e-003  9.818e-003
	Na               1.090e-002  1.090e-002

----------------------------Description of solution----------------------------

                                       pH  =   7.014      Charge balance
                                       pe  =  11.104      Adjusted to redox equilibrium
                        Activity of water  =   0.998
                           Ionic strength  =  7.963e-002
                       Mass of water (kg)  =  1.000e+000
                 Total alkalinity (eq/kg)  =  2.223e-007
                    Total carbon (mol/kg)  =  0.000e+000
                       Total CO2 (mol/kg)  =  0.000e+000
                      Temperature (deg C)  =  25.000
                  Electrical balance (eq)  =  1.567e-010
 Percent error, 100*(Cat-|An|)/(Cat+|An|)  =   0.00
                               Iterations  =  31
                                  Total H  = 1.110124e+002
                                  Total O  = 5.550622e+001

----------------------------Distribution of species----------------------------

                                                   Log       Log         Log 
   Species                 Molality    Activity  Molality  Activity     Gamma

   OH-                   1.299e-007  1.032e-007    -6.886    -6.986    -0.100
   H+                    1.160e-007  9.685e-008    -6.936    -7.014    -0.078
   H2O                   5.551e+001  9.983e-001     1.744    -0.001     0.000
Ca              9.817e-003
   Ca+2                  9.817e-003  4.095e-003    -2.008    -2.388    -0.380
   CaOH+                 8.817e-009  7.005e-009    -8.055    -8.155    -0.100
Cl              6.000e-002
   Cl-                   6.000e-002  4.686e-002    -1.222    -1.329    -0.107
H(0)            8.084e-040
   H2                    4.042e-040  4.117e-040   -39.393   -39.385     0.008
K               9.828e-003
   K+                    9.828e-003  7.676e-003    -2.008    -2.115    -0.107
Mg              9.818e-003
   Mg+2                  9.817e-003  4.237e-003    -2.008    -2.373    -0.365
   MgOH+                 1.996e-007  1.586e-007    -6.700    -6.800    -0.100
Na              1.090e-002
   Na+                   1.090e-002  8.683e-003    -1.962    -2.061    -0.099
O(0)            4.814e-014
   O2                    2.407e-014  2.451e-014   -13.619   -13.611     0.008

------------------------------Saturation indices-------------------------------

	Phase               SI log IAP  log KT

	Brucite          -5.19   11.65   16.84  Mg(OH)2
	H2(g)           -36.24  -39.39   -3.15  H2
	H2O(g)           -1.51   -0.00    1.51  H2O
	Halite           -4.97   -3.39    1.58  NaCl
	O2(g)           -10.72  -13.61   -2.89  O2
	Portlandite     -11.16   11.64   22.80  Ca(OH)2

Reaction step 9.

Using solution 1.	
Using kinetics 1.	Kinetics defined in simulation 3.

Kinetics 1.	Kinetics defined in simulation 3.

	Time step: 2 seconds  (Incremented time: 18 seconds)

	Rate name       Delta Moles Total Moles   Reactant        Coefficient

	CaX2             1.447e-005  1.978e-004   Ca                        1
	MgX2             1.008e-005  1.925e-004   Mg                        1
	KX               6.846e-006  1.787e-004   K                         1
	HX              -1.084e-008  0.000e+000   H                         1
	NaX             -5.491e-005  4.167e-005   Na                        1

----------------------------------User print-----------------------------------

Total equivalents:           1.0011e-003 
equiv frac NaX:              4.1635e-002 
equiv frac CaX2:             3.9528e-001 
equiv frac MgX2:             3.8457e-001 
equiv frac KX:               1.7851e-001 
equiv frac HX:               1.0000e-099 

-----------------------------Solution composition------------------------------

	Elements           Molality       Moles

	Ca               9.802e-003  9.802e-003
	Cl               6.000e-002  6.000e-002
	K                9.821e-003  9.821e-003
	Mg               9.808e-003  9.808e-003
	Na               1.096e-002  1.096e-002

----------------------------Description of solution----------------------------

                                       pH  =   6.144      Charge balance
                                       pe  =  13.731      Adjusted to redox equilibrium
                        Activity of water  =   0.998
                           Ionic strength  =  7.961e-002
                       Mass of water (kg)  =  1.000e+000
                 Total alkalinity (eq/kg)  = -8.151e-007
                    Total carbon (mol/kg)  =  0.000e+000
                       Total CO2 (mol/kg)  =  0.000e+000
                      Temperature (deg C)  =  25.000
                  Electrical balance (eq)  =  1.567e-010
 Percent error, 100*(Cat-|An|)/(Cat+|An|)  =   0.00
                               Iterations  = 534
                                  Total H  = 1.110124e+002
                                  Total O  = 5.550622e+001

----------------------------Distribution of species----------------------------

                                                   Log       Log         Log 
   Species                 Molality    Activity  Molality  Activity     Gamma

   H+                    8.607e-007  7.186e-007    -6.065    -6.144    -0.078
   OH-                   1.751e-008  1.391e-008    -7.757    -7.857    -0.100
   H2O                   5.551e+001  9.983e-001     1.744    -0.001     0.000
Ca              9.802e-003
   Ca+2                  9.802e-003  4.089e-003    -2.009    -2.388    -0.380
   CaOH+                 1.187e-009  9.428e-010    -8.926    -9.026    -0.100
Cl              6.000e-002
   Cl-                   6.000e-002  4.686e-002    -1.222    -1.329    -0.107
H(0)            0.000e+000
   H2                    0.000e+000  0.000e+000   -42.907   -42.899     0.008
K               9.821e-003
   K+                    9.821e-003  7.671e-003    -2.008    -2.115    -0.107
Mg              9.808e-003
   Mg+2                  9.807e-003  4.233e-003    -2.008    -2.373    -0.365
   MgOH+                 2.688e-008  2.135e-008    -7.571    -7.671    -0.100
Na              1.096e-002
   Na+                   1.096e-002  8.727e-003    -1.960    -2.059    -0.099
O(0)            5.134e-007
   O2                    2.567e-007  2.614e-007    -6.591    -6.583     0.008

------------------------------Saturation indices-------------------------------

	Phase               SI log IAP  log KT

	Brucite          -6.93    9.91   16.84  Mg(OH)2
	H2(g)           -39.75  -42.90   -3.15  H2
	H2O(g)           -1.51   -0.00    1.51  H2O
	Halite           -4.97   -3.39    1.58  NaCl
	O2(g)            -3.69   -6.58   -2.89  O2
	Portlandite     -12.90    9.90   22.80  Ca(OH)2

Reaction step 10.

Using solution 1.	
Using kinetics 1.	Kinetics defined in simulation 3.

Kinetics 1.	Kinetics defined in simulation 3.

	Time step: 2 seconds  (Incremented time: 20 seconds)

	Rate name       Delta Moles Total Moles   Reactant        Coefficient

	CaX2             5.132e-006  2.030e-004   Ca                        1
	MgX2            -3.107e-006  1.894e-004   Mg                        1
	KX              -8.536e-007  1.778e-004   K                         1
	HX               3.058e-008  3.058e-008   H                         1
	NaX             -3.228e-006  3.844e-005   Na                        1

----------------------------------User print-----------------------------------

Total equivalents:           1.0010e-003 
equiv frac NaX:              3.8401e-002 
equiv frac CaX2:             4.0576e-001 
equiv frac MgX2:             3.7817e-001 
equiv frac KX:               1.7763e-001 
equiv frac HX:               3.0748e-005 

-----------------------------Solution composition------------------------------

	Elements           Molality       Moles

	Ca               9.797e-003  9.797e-003
	Cl               6.000e-002  6.000e-002
	K                9.822e-003  9.822e-003
	Mg               9.811e-003  9.811e-003
	Na               1.096e-002  1.096e-002

----------------------------Description of solution----------------------------

                                       pH  =   6.158      Charge balance
                                       pe  =  13.716      Adjusted to redox equilibrium
                        Activity of water  =   0.998
                           Ionic strength  =  7.961e-002
                       Mass of water (kg)  =  1.000e+000
                 Total alkalinity (eq/kg)  = -7.845e-007
                    Total carbon (mol/kg)  =  0.000e+000
                       Total CO2 (mol/kg)  =  0.000e+000
                      Temperature (deg C)  =  25.000
                  Electrical balance (eq)  =  1.568e-010
 Percent error, 100*(Cat-|An|)/(Cat+|An|)  =   0.00
                               Iterations  =  44
                                  Total H  = 1.110124e+002
                                  Total O  = 5.550622e+001

----------------------------Distribution of species----------------------------

                                                   Log       Log         Log 
   Species                 Molality    Activity  Molality  Activity     Gamma

   H+                    8.317e-007  6.944e-007    -6.080    -6.158    -0.078
   OH-                   1.812e-008  1.439e-008    -7.742    -7.842    -0.100
   H2O                   5.551e+001  9.983e-001     1.744    -0.001     0.000
Ca              9.797e-003
   Ca+2                  9.797e-003  4.087e-003    -2.009    -2.389    -0.380
   CaOH+                 1.227e-009  9.751e-010    -8.911    -9.011    -0.100
Cl              6.000e-002
   Cl-                   6.000e-002  4.686e-002    -1.222    -1.329    -0.107
H(0)            0.000e+000
   H2                    0.000e+000  0.000e+000   -42.907   -42.899     0.008
K               9.822e-003
   K+                    9.822e-003  7.672e-003    -2.008    -2.115    -0.107
Mg              9.811e-003
   Mg+2                  9.811e-003  4.235e-003    -2.008    -2.373    -0.365
   MgOH+                 2.782e-008  2.211e-008    -7.556    -7.656    -0.100
Na              1.096e-002
   Na+                   1.096e-002  8.730e-003    -1.960    -2.059    -0.099
O(0)            5.134e-007
   O2                    2.567e-007  2.614e-007    -6.591    -6.583     0.008

------------------------------Saturation indices-------------------------------

	Phase               SI log IAP  log KT

	Brucite          -6.90    9.94   16.84  Mg(OH)2
	H2(g)           -39.75  -42.90   -3.15  H2
	H2O(g)           -1.51   -0.00    1.51  H2O
	Halite           -4.97   -3.39    1.58  NaCl
	O2(g)            -3.69   -6.58   -2.89  O2
	Portlandite     -12.87    9.93   22.80  Ca(OH)2

------------------
End of simulation.
------------------

------------------------------------
Reading input data for simulation 4.
------------------------------------

-----------
End of run.
-----------

