   Input file: mgcl2mgso4_pz
  Output file: mgcl2mgso4_pz.out
Database file: ../database/pitzer.dat

------------------
Reading data base.
------------------

	SOLUTION_MASTER_SPECIES
	SOLUTION_SPECIES
	PHASES
	PITZER
	EXCHANGE_MASTER_SPECIES
	EXCHANGE_SPECIES
	SURFACE_MASTER_SPECIES
	SURFACE_SPECIES
	END
------------------------------------
Reading input data for simulation 1.
------------------------------------

	DATABASE ../database/pitzer.dat
	        SOLUTION 1
	        units mol/kgw
	        pH    7
	        temp  25
	        EQUILIBRIUM_PHASES 1
	        Halite       0 10
	        Sylvite      0 10
	        Bischofite   0 0
	        Carnallite   0 0
	        Epsomite     0 0
	        Kieserite    0 0
	        REACTION
	        MgCl2 0
	        MgSO4 0
	END
-------------------------------------------
Beginning of initial solution calculations.
-------------------------------------------

Initial solution 1.	

-----------------------------Solution composition------------------------------

	Elements           Molality       Moles

	Pure water     

----------------------------Description of solution----------------------------

                                       pH  =   7.000    
                                       pe  =   4.000    
       Specific Conductance (uS/cm, 25 oC) = 0
                          Density (g/cm3)  =   0.99705
                        Activity of water  =   1.000
                           Ionic strength  =  1.003e-007
                       Mass of water (kg)  =  1.000e+000
                 Total alkalinity (eq/kg)  =  4.618e-010
                    Total carbon (mol/kg)  =  0.000e+000
                       Total CO2 (mol/kg)  =  0.000e+000
                      Temperature (deg C)  =  25.000
                  Electrical balance (eq)  = -4.618e-010
 Percent error, 100*(Cat-|An|)/(Cat+|An|)  =  -0.23
                               Iterations  =   2
                         Gamma iterations  =   2
                      Osmotic coefficient  =   0.99988
                         Density of water  =   0.99706
                                  Total H  = 1.110124e+002
                                  Total O  = 5.550622e+001

----------------------------Distribution of species----------------------------

                                                           MacInnes   MacInnes
	                               MacInnes    Log       Log         Log 
   Species                 Molality    Activity  Molality  Activity     Gamma

   OH-                   1.005e-007  1.005e-007    -6.998    -6.998    -0.000
   H+                    1.000e-007  1.000e-007    -7.000    -7.000    -0.000
   H2O                   5.551e+001  1.000e+000     1.744    -0.000     0.000

------------------------------Saturation indices-------------------------------

	Phase               SI log IAP  log KT

	H2O(g)           -1.51   -0.00    1.51  H2O

-----------------------------------------
Beginning of batch-reaction calculations.
-----------------------------------------

Reaction step 1.

WARNING: Element Mg is contained in Bischofite (which has 0.0 mass),	
but is not in solution or other phases.
WARNING: Element Mg is contained in Carnallite (which has 0.0 mass),	
but is not in solution or other phases.
WARNING: Element Mg is contained in Epsomite (which has 0.0 mass),	
but is not in solution or other phases.
WARNING: Element S is contained in Epsomite (which has 0.0 mass),	
but is not in solution or other phases.
WARNING: Element Mg is contained in Kieserite (which has 0.0 mass),	
but is not in solution or other phases.
WARNING: Element S is contained in Kieserite (which has 0.0 mass),	
but is not in solution or other phases.
WARNING: Maximum iterations exceeded, 200

WARNING: Numerical method failed with this set of convergence parameters.

WARNING: Trying smaller step size, pe step size 10, 5 ... 

WARNING: Element Mg is contained in Bischofite (which has 0.0 mass),	
but is not in solution or other phases.
WARNING: Element Mg is contained in Carnallite (which has 0.0 mass),	
but is not in solution or other phases.
WARNING: Element Mg is contained in Epsomite (which has 0.0 mass),	
but is not in solution or other phases.
WARNING: Element S is contained in Epsomite (which has 0.0 mass),	
but is not in solution or other phases.
WARNING: Element Mg is contained in Kieserite (which has 0.0 mass),	
but is not in solution or other phases.
WARNING: Element S is contained in Kieserite (which has 0.0 mass),	
but is not in solution or other phases.
Using solution 1.	
Using pure phase assemblage 1.	
Using reaction 1.	

Reaction 1.	Irreversible reaction defined in simulation 1.

	 1.000e+000 moles of the following reaction have been added:

	                 Relative
	Reactant            moles

	MgCl2                0.00000
	MgSO4                0.00000

	                 Relative
	Element             moles
	Cl                   0.00000
	Mg                   0.00000
	O                    0.00000
	S                    0.00000

-------------------------------Phase assemblage--------------------------------

                                                      Moles in assemblage
Phase                  SI log IAP  log KT      Initial       Final       Delta

Bischofite           Element not present.   0.000e+000           0  0.000e+000
Carnallite           Element not present.   0.000e+000           0  0.000e+000
Epsomite             Element not present.   0.000e+000           0  0.000e+000
Halite               0.00    1.57    1.57   1.000e+001  4.925e+000 -5.075e+000
Kieserite            Element not present.   0.000e+000           0  0.000e+000
Sylvite              0.00    0.90    0.90   1.000e+001  7.866e+000 -2.134e+000

-----------------------------Solution composition------------------------------

	Elements           Molality       Moles

	Cl               7.209e+000  7.209e+000
	K                2.134e+000  2.134e+000
	Na               5.075e+000  5.075e+000

----------------------------Description of solution----------------------------

                                       pH  =   6.447      Charge balance
                                       pe  =   4.000      Adjusted to redox equilibrium
       Specific Conductance (uS/cm, 25 oC) = 507010
                          Density (g/cm3)  =   1.23290
                        Activity of water  =   0.723
                           Ionic strength  =  7.209e+000
                       Mass of water (kg)  =  1.000e+000
                 Total alkalinity (eq/kg)  =  4.618e-010
                    Total carbon (mol/kg)  =  0.000e+000
                       Total CO2 (mol/kg)  =  0.000e+000
                      Temperature (deg C)  =  25.000
                  Electrical balance (eq)  = -4.553e-010
 Percent error, 100*(Cat-|An|)/(Cat+|An|)  =  -0.00
                               Iterations  =  28
                         Gamma iterations  =  28
                      Osmotic coefficient  =   1.24656
                         Density of water  =   0.99706
                                  Total H  = 1.110124e+002
                                  Total O  = 5.550622e+001

----------------------------Distribution of species----------------------------

                                                           MacInnes   MacInnes
	                               MacInnes    Log       Log         Log 
   Species                 Molality    Activity  Molality  Activity     Gamma

   OH-                   4.537e-008  2.036e-008    -7.343    -7.691    -0.348
   H+                    4.491e-008  3.570e-007    -7.348    -6.447     0.900
   H2O                   5.551e+001  7.234e-001     1.744    -0.141     0.000
Cl              7.209e+000
   Cl-                   7.209e+000  4.604e+000     0.858     0.663    -0.195
K               2.134e+000
   K+                    2.134e+000  1.725e+000     0.329     0.237    -0.093
Na              5.075e+000
   Na+                   5.075e+000  8.071e+000     0.705     0.907     0.201

------------------------------Saturation indices-------------------------------

	Phase               SI log IAP  log KT

	H2O(g)           -1.65   -0.14    1.51  H2O
	Halite            0.00    1.57    1.57  NaCl
	Sylvite           0.00    0.90    0.90  KCl

------------------
End of simulation.
------------------

------------------------------------
Reading input data for simulation 2.
------------------------------------

	        SOLUTION 1
	        units mol/kgw
	        pH    7
	        temp  25
	        EQUILIBRIUM_PHASES 1
	        Halite       0 10
	        Sylvite      0 10
	        Bischofite   0 0
	        Carnallite   0 0
	        Epsomite     0 0
	        Kieserite    0 0
	        REACTION
	        MgCl2 0
	        MgSO4 1
	END
-------------------------------------------
Beginning of initial solution calculations.
-------------------------------------------

Initial solution 1.	

-----------------------------Solution composition------------------------------

	Elements           Molality       Moles

	Pure water     

----------------------------Description of solution----------------------------

                                       pH  =   7.000    
                                       pe  =   4.000    
       Specific Conductance (uS/cm, 25 oC) = 0
                          Density (g/cm3)  =   0.99705
                        Activity of water  =   1.000
                           Ionic strength  =  1.003e-007
                       Mass of water (kg)  =  1.000e+000
                 Total alkalinity (eq/kg)  =  4.618e-010
                    Total carbon (mol/kg)  =  0.000e+000
                       Total CO2 (mol/kg)  =  0.000e+000
                      Temperature (deg C)  =  25.000
                  Electrical balance (eq)  = -4.618e-010
 Percent error, 100*(Cat-|An|)/(Cat+|An|)  =  -0.23
                               Iterations  =   2
                         Gamma iterations  =   2
                      Osmotic coefficient  =   0.99988
                         Density of water  =   0.99706
                                  Total H  = 1.110124e+002
                                  Total O  = 5.550622e+001

----------------------------Distribution of species----------------------------

                                                           MacInnes   MacInnes
	                               MacInnes    Log       Log         Log 
   Species                 Molality    Activity  Molality  Activity     Gamma

   OH-                   1.005e-007  1.005e-007    -6.998    -6.998    -0.000
   H+                    1.000e-007  1.000e-007    -7.000    -7.000    -0.000
   H2O                   5.551e+001  1.000e+000     1.744    -0.000     0.000

------------------------------Saturation indices-------------------------------

	Phase               SI log IAP  log KT

	H2O(g)           -1.51   -0.00    1.51  H2O

-----------------------------------------
Beginning of batch-reaction calculations.
-----------------------------------------

Reaction step 1.

Using solution 1.	
Using pure phase assemblage 1.	
Using reaction 1.	

Reaction 1.	Irreversible reaction defined in simulation 2.

	 1.000e+000 moles of the following reaction have been added:

	                 Relative
	Reactant            moles

	MgCl2                0.00000
	MgSO4                1.00000

	                 Relative
	Element             moles
	Cl                   0.00000
	Mg                   1.00000
	O                    4.00000
	S                    1.00000

-------------------------------Phase assemblage--------------------------------

                                                      Moles in assemblage
Phase                  SI log IAP  log KT      Initial       Final       Delta

Bischofite          -3.22    1.23    4.46   0.000e+000           0  0.000e+000
Carnallite          -2.20    2.13    4.33   0.000e+000           0  0.000e+000
Epsomite            -0.73   -2.61   -1.88   0.000e+000           0  0.000e+000
Halite               0.00    1.57    1.57   1.000e+001  5.707e+000 -4.293e+000
Kieserite           -1.55   -1.68   -0.12   0.000e+000           0  0.000e+000
Sylvite              0.00    0.90    0.90   1.000e+001  7.841e+000 -2.159e+000

-----------------------------Solution composition------------------------------

	Elements           Molality       Moles

	Cl               6.452e+000  6.452e+000
	K                2.159e+000  2.159e+000
	Mg               1.000e+000  1.000e+000
	Na               4.293e+000  4.293e+000
	S                1.000e+000  1.000e+000

----------------------------Description of solution----------------------------

                                       pH  =   5.427      Charge balance
                                       pe  =   4.000      Adjusted to redox equilibrium
       Specific Conductance (uS/cm, 25 oC) = 569919
                          Density (g/cm3)  =   1.29158
                        Activity of water  =   0.699
                           Ionic strength  =  1.045e+001
                       Mass of water (kg)  =  1.000e+000
                 Total alkalinity (eq/kg)  =  4.618e-010
                    Total carbon (mol/kg)  =  0.000e+000
                       Total CO2 (mol/kg)  =  0.000e+000
                      Temperature (deg C)  =  25.000
                  Electrical balance (eq)  = -6.163e-010
 Percent error, 100*(Cat-|An|)/(Cat+|An|)  =  -0.00
                               Iterations  =  41
                         Gamma iterations  =   9
                      Osmotic coefficient  =   1.33598
                         Density of water  =   0.99706
                                  Total H  = 1.110124e+002
                                  Total O  = 5.950622e+001

----------------------------Distribution of species----------------------------

                                                           MacInnes   MacInnes
	                               MacInnes    Log       Log         Log 
   Species                 Molality    Activity  Molality  Activity     Gamma

   H+                    2.485e-007  3.744e-006    -6.605    -5.427     1.178
   OH-                   8.792e-009  1.874e-009    -8.056    -8.727    -0.671
   H2O                   5.551e+001  6.986e-001     1.744    -0.156     0.000
Cl              6.452e+000
   Cl-                   6.452e+000  4.714e+000     0.810     0.673    -0.136
K               2.159e+000
   K+                    2.159e+000  1.684e+000     0.334     0.226    -0.108
Mg              1.000e+000
   Mg+2                  1.000e+000  6.632e+000    -0.000     0.822     0.822
   MgOH+                 4.457e-006  1.921e-006    -5.351    -5.716    -0.366
Na              4.293e+000
   Na+                   4.293e+000  7.882e+000     0.633     0.897     0.264
S(6)            1.000e+000
   SO4-2                 1.000e+000  4.539e-003    -0.000    -2.343    -2.343
   HSO4-                 4.217e-006  1.619e-006    -5.375    -5.791    -0.416

------------------------------Saturation indices-------------------------------

	Phase               SI log IAP  log KT

	Arcanite         -0.11   -1.89   -1.78  K2SO4
	Bischofite       -3.22    1.23    4.46  MgCl2:6H2O
	Bloedite         -0.35   -2.69   -2.35  Na2Mg(SO4)2:4H2O
	Brucite          -5.75  -16.63  -10.88  Mg(OH)2
	Carnallite       -2.20    2.13    4.33  KMgCl3:6H2O
	Epsomite         -0.73   -2.61   -1.88  MgSO4:7H2O
	Glaserite         0.69   -3.11   -3.80  NaK3(SO4)2
	H2O(g)           -1.67   -0.16    1.51  H2O
	Halite            0.00    1.57    1.57  NaCl
	Hexahydrite      -0.82   -2.46   -1.63  MgSO4:6H2O
	Kainite          -0.90   -1.09   -0.19  KMgClSO4:3H2O
	Kieserite        -1.55   -1.68   -0.12  MgSO4:H2O
	Leonhardite      -1.26   -2.14   -0.89  MgSO4:4H2O
	Leonite          -0.06   -4.03   -3.98  K2Mg(SO4)2:4H2O
	Mirabilite       -0.89   -2.11   -1.21  Na2SO4:10H2O
	Misenite        -36.34  -47.15  -10.81  K8H6(SO4)7
	Pentahydrite     -1.02   -2.30   -1.28  MgSO4:5H2O
	Schoenite        -0.02   -4.35   -4.33  K2Mg(SO4)2:6H2O
	Sylvite           0.00    0.90    0.90  KCl

------------------
End of simulation.
------------------

------------------------------------
Reading input data for simulation 3.
------------------------------------

	        SOLUTION 1
	        units mol/kgw
	        pH    7
	        temp  25
	        EQUILIBRIUM_PHASES 1
	        Halite       0 10
	        Sylvite      0 10
	        Bischofite   0 0
	        Carnallite   0 0
	        Epsomite     0 0
	        Kieserite    0 0
	        REACTION
	        MgCl2 0
	        MgSO4 2
	END
-------------------------------------------
Beginning of initial solution calculations.
-------------------------------------------

Initial solution 1.	

-----------------------------Solution composition------------------------------

	Elements           Molality       Moles

	Pure water     

----------------------------Description of solution----------------------------

                                       pH  =   7.000    
                                       pe  =   4.000    
       Specific Conductance (uS/cm, 25 oC) = 0
                          Density (g/cm3)  =   0.99705
                        Activity of water  =   1.000
                           Ionic strength  =  1.003e-007
                       Mass of water (kg)  =  1.000e+000
                 Total alkalinity (eq/kg)  =  4.618e-010
                    Total carbon (mol/kg)  =  0.000e+000
                       Total CO2 (mol/kg)  =  0.000e+000
                      Temperature (deg C)  =  25.000
                  Electrical balance (eq)  = -4.618e-010
 Percent error, 100*(Cat-|An|)/(Cat+|An|)  =  -0.23
                               Iterations  =   2
                         Gamma iterations  =   2
                      Osmotic coefficient  =   0.99988
                         Density of water  =   0.99706
                                  Total H  = 1.110124e+002
                                  Total O  = 5.550622e+001

----------------------------Distribution of species----------------------------

                                                           MacInnes   MacInnes
	                               MacInnes    Log       Log         Log 
   Species                 Molality    Activity  Molality  Activity     Gamma

   OH-                   1.005e-007  1.005e-007    -6.998    -6.998    -0.000
   H+                    1.000e-007  1.000e-007    -7.000    -7.000    -0.000
   H2O                   5.551e+001  1.000e+000     1.744    -0.000     0.000

------------------------------Saturation indices-------------------------------

	Phase               SI log IAP  log KT

	H2O(g)           -1.51   -0.00    1.51  H2O

-----------------------------------------
Beginning of batch-reaction calculations.
-----------------------------------------

Reaction step 1.

Using solution 1.	
Using pure phase assemblage 1.	
Using reaction 1.	

Reaction 1.	Irreversible reaction defined in simulation 3.

	 1.000e+000 moles of the following reaction have been added:

	                 Relative
	Reactant            moles

	MgCl2                0.00000
	MgSO4                2.00000

	                 Relative
	Element             moles
	Cl                   0.00000
	Mg                   2.00000
	O                    8.00000
	S                    2.00000

-------------------------------Phase assemblage--------------------------------

                                                      Moles in assemblage
Phase                  SI log IAP  log KT      Initial       Final       Delta

Bischofite          -2.85    1.61    4.46   0.000e+000           0  0.000e+000
Carnallite          -1.82    2.51    4.33   0.000e+000           0  0.000e+000
Epsomite            -0.24   -2.12   -1.88   0.000e+000           0  0.000e+000
Halite               0.00    1.57    1.57   1.000e+001  6.513e+000 -3.487e+000
Kieserite           -0.97   -1.09   -0.12   0.000e+000           0  0.000e+000
Sylvite              0.00    0.90    0.90   1.000e+001  7.843e+000 -2.157e+000

-----------------------------Solution composition------------------------------

	Elements           Molality       Moles

	Cl               5.644e+000  5.644e+000
	K                2.157e+000  2.157e+000
	Mg               2.000e+000  2.000e+000
	Na               3.487e+000  3.487e+000
	S                2.000e+000  2.000e+000

----------------------------Description of solution----------------------------

                                       pH  =   5.258      Charge balance
                                       pe  =   4.000      Adjusted to redox equilibrium
       Specific Conductance (uS/cm, 25 oC) = 670990
                          Density (g/cm3)  =   1.34482
                        Activity of water  =   0.674
                           Ionic strength  =  1.364e+001
                       Mass of water (kg)  =  1.000e+000
                 Total alkalinity (eq/kg)  =  4.618e-010
                    Total carbon (mol/kg)  =  0.000e+000
                       Total CO2 (mol/kg)  =  0.000e+000
                      Temperature (deg C)  =  25.000
                  Electrical balance (eq)  = -4.683e-010
 Percent error, 100*(Cat-|An|)/(Cat+|An|)  =  -0.00
                               Iterations  =  30
                         Gamma iterations  =   7
                      Osmotic coefficient  =   1.43299
                         Density of water  =   0.99706
                                  Total H  = 1.110124e+002
                                  Total O  = 6.350622e+001

----------------------------Distribution of species----------------------------

                                                           MacInnes   MacInnes
	                               MacInnes    Log       Log         Log 
   Species                 Molality    Activity  Molality  Activity     Gamma

   H+                    1.582e-007  5.515e-006    -6.801    -5.258     1.543
   OH-                   1.143e-008  1.227e-009    -7.942    -8.911    -0.969
   H2O                   5.551e+001  6.739e-001     1.744    -0.171     0.000
Cl              5.644e+000
   Cl-                   5.644e+000  4.714e+000     0.752     0.673    -0.078
K               2.157e+000
   K+                    2.157e+000  1.684e+000     0.334     0.226    -0.107
Mg              2.000e+000
   Mg+2                  2.000e+000  1.955e+001     0.301     1.291     0.990
   MgOH+                 7.101e-006  3.709e-006    -5.149    -5.431    -0.282
Na              3.487e+000
   Na+                   3.487e+000  7.881e+000     0.542     0.897     0.354
S(6)            2.000e+000
   SO4-2                 2.000e+000  6.099e-003     0.301    -2.215    -2.516
   HSO4-                 6.953e-006  3.205e-006    -5.158    -5.494    -0.336

------------------------------Saturation indices-------------------------------

	Phase               SI log IAP  log KT

	Arcanite          0.01   -1.76   -1.78  K2SO4
	Bischofite       -2.85    1.61    4.46  MgCl2:6H2O
	Bloedite          0.32   -2.03   -2.35  Na2Mg(SO4)2:4H2O
	Brucite          -5.65  -16.53  -10.88  Mg(OH)2
	Carnallite       -1.82    2.51    4.33  KMgCl3:6H2O
	Epsomite         -0.24   -2.12   -1.88  MgSO4:7H2O
	Glaserite         0.95   -2.85   -3.80  NaK3(SO4)2
	H2O(g)           -1.68   -0.17    1.51  H2O
	Halite            0.00    1.57    1.57  NaCl
	Hexahydrite      -0.32   -1.95   -1.63  MgSO4:6H2O
	Kainite          -0.34   -0.54   -0.19  KMgClSO4:3H2O
	Kieserite        -0.97   -1.09   -0.12  MgSO4:H2O
	Leonhardite      -0.72   -1.61   -0.89  MgSO4:4H2O
	Leonite           0.61   -3.37   -3.98  K2Mg(SO4)2:4H2O
	Mirabilite       -0.92   -2.14   -1.21  Na2SO4:10H2O
	Misenite        -34.44  -45.24  -10.81  K8H6(SO4)7
	Pentahydrite     -0.50   -1.78   -1.28  MgSO4:5H2O
	Schoenite         0.61   -3.71   -4.33  K2Mg(SO4)2:6H2O
	Sylvite           0.00    0.90    0.90  KCl

------------------
End of simulation.
------------------

------------------------------------
Reading input data for simulation 4.
------------------------------------

	        SOLUTION 1
	        units mol/kgw
	        pH    7
	        temp  25
	        EQUILIBRIUM_PHASES 1
	        Halite       0 10
	        Sylvite      0 10
	        Bischofite   0 0
	        Carnallite   0 0
	        Epsomite     0 0
	        Kieserite    0 0
	        REACTION
	        MgCl2 0
	        MgSO4 3
	END
-------------------------------------------
Beginning of initial solution calculations.
-------------------------------------------

Initial solution 1.	

-----------------------------Solution composition------------------------------

	Elements           Molality       Moles

	Pure water     

----------------------------Description of solution----------------------------

                                       pH  =   7.000    
                                       pe  =   4.000    
       Specific Conductance (uS/cm, 25 oC) = 0
                          Density (g/cm3)  =   0.99705
                        Activity of water  =   1.000
                           Ionic strength  =  1.003e-007
                       Mass of water (kg)  =  1.000e+000
                 Total alkalinity (eq/kg)  =  4.618e-010
                    Total carbon (mol/kg)  =  0.000e+000
                       Total CO2 (mol/kg)  =  0.000e+000
                      Temperature (deg C)  =  25.000
                  Electrical balance (eq)  = -4.618e-010
 Percent error, 100*(Cat-|An|)/(Cat+|An|)  =  -0.23
                               Iterations  =   2
                         Gamma iterations  =   2
                      Osmotic coefficient  =   0.99988
                         Density of water  =   0.99706
                                  Total H  = 1.110124e+002
                                  Total O  = 5.550622e+001

----------------------------Distribution of species----------------------------

                                                           MacInnes   MacInnes
	                               MacInnes    Log       Log         Log 
   Species                 Molality    Activity  Molality  Activity     Gamma

   OH-                   1.005e-007  1.005e-007    -6.998    -6.998    -0.000
   H+                    1.000e-007  1.000e-007    -7.000    -7.000    -0.000
   H2O                   5.551e+001  1.000e+000     1.744    -0.000     0.000

------------------------------Saturation indices-------------------------------

	Phase               SI log IAP  log KT

	H2O(g)           -1.51   -0.00    1.51  H2O

-----------------------------------------
Beginning of batch-reaction calculations.
-----------------------------------------

Reaction step 1.

Using solution 1.	
Using pure phase assemblage 1.	
Using reaction 1.	

Reaction 1.	Irreversible reaction defined in simulation 4.

	 1.000e+000 moles of the following reaction have been added:

	                 Relative
	Reactant            moles

	MgCl2                0.00000
	MgSO4                3.00000

	                 Relative
	Element             moles
	Cl                   0.00000
	Mg                   3.00000
	O                   12.00000
	S                    3.00000

-------------------------------Phase assemblage--------------------------------

                                                      Moles in assemblage
Phase                  SI log IAP  log KT      Initial       Final       Delta

Bischofite          -2.60    1.85    4.46   0.000e+000           0  0.000e+000
Carnallite          -1.58    2.75    4.33   0.000e+000           0  0.000e+000
Epsomite             0.00   -1.88   -1.88   0.000e+000  2.698e-001  2.698e-001
Halite               0.00    1.57    1.57   1.000e+001  7.259e+000 -2.741e+000
Kieserite           -0.64   -0.76   -0.12   0.000e+000           0  0.000e+000
Sylvite              0.00    0.90    0.90   1.000e+001  7.929e+000 -2.071e+000

-----------------------------Solution composition------------------------------

	Elements           Molality       Moles

	Cl               4.982e+000  4.813e+000
	K                2.144e+000  2.071e+000
	Mg               2.826e+000  2.730e+000
	Na               2.838e+000  2.741e+000
	S                2.826e+000  2.730e+000

----------------------------Description of solution----------------------------

                                       pH  =   5.129      Charge balance
                                       pe  =   4.000      Adjusted to redox equilibrium
       Specific Conductance (uS/cm, 25 oC) = 785030
                          Density (g/cm3)  =   1.38603
                        Activity of water  =   0.651
                           Ionic strength  =  1.629e+001
                       Mass of water (kg)  =  9.660e-001
                 Total alkalinity (eq/kg)  =  4.780e-010
                    Total carbon (mol/kg)  =  0.000e+000
                       Total CO2 (mol/kg)  =  0.000e+000
                      Temperature (deg C)  =  25.000
                  Electrical balance (eq)  = -8.766e-009
 Percent error, 100*(Cat-|An|)/(Cat+|An|)  =  -0.00
                               Iterations  =  57
                         Gamma iterations  =  13
                      Osmotic coefficient  =   1.52610
                         Density of water  =   0.99706
                                  Total H  = 1.072352e+002
                                  Total O  = 6.453838e+001

----------------------------Distribution of species----------------------------

                                                           MacInnes   MacInnes
	                               MacInnes    Log       Log         Log 
   Species                 Molality    Activity  Molality  Activity     Gamma

   H+                    9.270e-008  7.429e-006    -7.033    -5.129     1.904
   OH-                   1.437e-008  8.803e-010    -7.843    -9.055    -1.213
   H2O                   5.551e+001  6.509e-001     1.744    -0.186     0.000
Cl              4.982e+000
   Cl-                   4.982e+000  4.616e+000     0.697     0.664    -0.033
K               2.144e+000
   K+                    2.144e+000  1.720e+000     0.331     0.236    -0.096
Mg              2.826e+000
   Mg+2                  2.826e+000  4.398e+001     0.451     1.643     1.192
   MgOH+                 8.651e-006  5.982e-006    -5.063    -5.223    -0.160
Na              2.838e+000
   Na+                   2.838e+000  8.050e+000     0.453     0.906     0.453
S(6)            2.826e+000
   SO4-2                 2.826e+000  6.042e-003     0.451    -2.219    -2.670
   HSO4-                 8.572e-006  4.276e-006    -5.067    -5.369    -0.302

------------------------------Saturation indices-------------------------------

	Phase               SI log IAP  log KT

	Arcanite          0.03   -1.75   -1.78  K2SO4
	Bischofite       -2.60    1.85    4.46  MgCl2:6H2O
	Bloedite          0.62   -1.73   -2.35  Na2Mg(SO4)2:4H2O
	Brucite          -5.59  -16.47  -10.88  Mg(OH)2
	Carnallite       -1.58    2.75    4.33  KMgCl3:6H2O
	Epsomite          0.00   -1.88   -1.88  MgSO4:7H2O
	Glaserite         0.98   -2.83   -3.80  NaK3(SO4)2
	H2O(g)           -1.70   -0.19    1.51  H2O
	Halite            0.00    1.57    1.57  NaCl
	Hexahydrite      -0.06   -1.69   -1.63  MgSO4:6H2O
	Kainite          -0.04   -0.24   -0.19  KMgClSO4:3H2O
	Kieserite        -0.64   -0.76   -0.12  MgSO4:H2O
	Leonhardite      -0.43   -1.32   -0.89  MgSO4:4H2O
	Leonite           0.91   -3.07   -3.98  K2Mg(SO4)2:4H2O
	Mirabilite       -1.06   -2.27   -1.21  Na2SO4:10H2O
	Misenite        -33.62  -44.42  -10.81  K8H6(SO4)7
	Pentahydrite     -0.22   -1.51   -1.28  MgSO4:5H2O
	Schoenite         0.89   -3.44   -4.33  K2Mg(SO4)2:6H2O
	Sylvite           0.00    0.90    0.90  KCl

------------------
End of simulation.
------------------

------------------------------------
Reading input data for simulation 5.
------------------------------------

	        SOLUTION 1
	        units mol/kgw
	        pH    7
	        temp  25
	        EQUILIBRIUM_PHASES 1
	        Halite       0 10
	        Sylvite      0 10
	        Bischofite   0 0
	        Carnallite   0 0
	        Epsomite     0 0
	        Kieserite    0 0
	        REACTION
	        MgCl2 0
	        MgSO4 4
	END
-------------------------------------------
Beginning of initial solution calculations.
-------------------------------------------

Initial solution 1.	

-----------------------------Solution composition------------------------------

	Elements           Molality       Moles

	Pure water     

----------------------------Description of solution----------------------------

                                       pH  =   7.000    
                                       pe  =   4.000    
       Specific Conductance (uS/cm, 25 oC) = 0
                          Density (g/cm3)  =   0.99705
                        Activity of water  =   1.000
                           Ionic strength  =  1.003e-007
                       Mass of water (kg)  =  1.000e+000
                 Total alkalinity (eq/kg)  =  4.618e-010
                    Total carbon (mol/kg)  =  0.000e+000
                       Total CO2 (mol/kg)  =  0.000e+000
                      Temperature (deg C)  =  25.000
                  Electrical balance (eq)  = -4.618e-010
 Percent error, 100*(Cat-|An|)/(Cat+|An|)  =  -0.23
                               Iterations  =   2
                         Gamma iterations  =   2
                      Osmotic coefficient  =   0.99988
                         Density of water  =   0.99706
                                  Total H  = 1.110124e+002
                                  Total O  = 5.550622e+001

----------------------------Distribution of species----------------------------

                                                           MacInnes   MacInnes
	                               MacInnes    Log       Log         Log 
   Species                 Molality    Activity  Molality  Activity     Gamma

   OH-                   1.005e-007  1.005e-007    -6.998    -6.998    -0.000
   H+                    1.000e-007  1.000e-007    -7.000    -7.000    -0.000
   H2O                   5.551e+001  1.000e+000     1.744    -0.000     0.000

------------------------------Saturation indices-------------------------------

	Phase               SI log IAP  log KT

	H2O(g)           -1.51   -0.00    1.51  H2O

-----------------------------------------
Beginning of batch-reaction calculations.
-----------------------------------------

Reaction step 1.

WARNING: Maximum iterations exceeded, 200

WARNING: Numerical method failed with this set of convergence parameters.

WARNING: Trying smaller step size, pe step size 10, 5 ... 

Using solution 1.	
Using pure phase assemblage 1.	
Using reaction 1.	

Reaction 1.	Irreversible reaction defined in simulation 5.

	 1.000e+000 moles of the following reaction have been added:

	                 Relative
	Reactant            moles

	MgCl2                0.00000
	MgSO4                4.00000

	                 Relative
	Element             moles
	Cl                   0.00000
	Mg                   4.00000
	O                   16.00000
	S                    4.00000

-------------------------------Phase assemblage--------------------------------

                                                      Moles in assemblage
Phase                  SI log IAP  log KT      Initial       Final       Delta

Bischofite          -2.60    1.85    4.46   0.000e+000           0  0.000e+000
Carnallite          -1.58    2.75    4.33   0.000e+000           0  0.000e+000
Epsomite            -0.00   -1.88   -1.88   0.000e+000  1.824e+000  1.824e+000
Halite               0.00    1.57    1.57   1.000e+001  7.815e+000 -2.185e+000
Kieserite           -0.64   -0.76   -0.12   0.000e+000           0  0.000e+000
Sylvite              0.00    0.90    0.90   1.000e+001  8.349e+000 -1.651e+000

-----------------------------Solution composition------------------------------

	Elements           Molality       Moles

	Cl               4.982e+000  3.836e+000
	K                2.144e+000  1.651e+000
	Mg               2.826e+000  2.176e+000
	Na               2.838e+000  2.185e+000
	S                2.826e+000  2.176e+000

----------------------------Description of solution----------------------------

                                       pH  =   5.129      Charge balance
                                       pe  =   4.000      Adjusted to redox equilibrium
       Specific Conductance (uS/cm, 25 oC) = 785030
                          Density (g/cm3)  =   1.38603
                        Activity of water  =   0.651
                           Ionic strength  =  1.629e+001
                       Mass of water (kg)  =  7.700e-001
                 Total alkalinity (eq/kg)  =  5.997e-010
                    Total carbon (mol/kg)  =  0.000e+000
                       Total CO2 (mol/kg)  =  0.000e+000
                      Temperature (deg C)  =  25.000
                  Electrical balance (eq)  = -4.618e-010
 Percent error, 100*(Cat-|An|)/(Cat+|An|)  =  -0.00
                               Iterations  =  19
                         Gamma iterations  =  19
                      Osmotic coefficient  =   1.52610
                         Density of water  =   0.99706
                                  Total H  = 8.548124e+001
                                  Total O  = 5.144600e+001

----------------------------Distribution of species----------------------------

                                                           MacInnes   MacInnes
	                               MacInnes    Log       Log         Log 
   Species                 Molality    Activity  Molality  Activity     Gamma

   H+                    9.270e-008  7.429e-006    -7.033    -5.129     1.904
   OH-                   1.437e-008  8.803e-010    -7.843    -9.055    -1.213
   H2O                   5.551e+001  6.509e-001     1.744    -0.186     0.000
Cl              4.982e+000
   Cl-                   4.982e+000  4.616e+000     0.697     0.664    -0.033
K               2.144e+000
   K+                    2.144e+000  1.720e+000     0.331     0.236    -0.096
Mg              2.826e+000
   Mg+2                  2.826e+000  4.398e+001     0.451     1.643     1.192
   MgOH+                 8.651e-006  5.982e-006    -5.063    -5.223    -0.160
Na              2.838e+000
   Na+                   2.838e+000  8.050e+000     0.453     0.906     0.453
S(6)            2.826e+000
   SO4-2                 2.826e+000  6.042e-003     0.451    -2.219    -2.670
   HSO4-                 8.572e-006  4.276e-006    -5.067    -5.369    -0.302

------------------------------Saturation indices-------------------------------

	Phase               SI log IAP  log KT

	Arcanite          0.03   -1.75   -1.78  K2SO4
	Bischofite       -2.60    1.85    4.46  MgCl2:6H2O
	Bloedite          0.62   -1.73   -2.35  Na2Mg(SO4)2:4H2O
	Brucite          -5.59  -16.47  -10.88  Mg(OH)2
	Carnallite       -1.58    2.75    4.33  KMgCl3:6H2O
	Epsomite         -0.00   -1.88   -1.88  MgSO4:7H2O
	Glaserite         0.98   -2.83   -3.80  NaK3(SO4)2
	H2O(g)           -1.70   -0.19    1.51  H2O
	Halite            0.00    1.57    1.57  NaCl
	Hexahydrite      -0.06   -1.69   -1.63  MgSO4:6H2O
	Kainite          -0.04   -0.24   -0.19  KMgClSO4:3H2O
	Kieserite        -0.64   -0.76   -0.12  MgSO4:H2O
	Leonhardite      -0.43   -1.32   -0.89  MgSO4:4H2O
	Leonite           0.91   -3.07   -3.98  K2Mg(SO4)2:4H2O
	Mirabilite       -1.06   -2.27   -1.21  Na2SO4:10H2O
	Misenite        -33.62  -44.42  -10.81  K8H6(SO4)7
	Pentahydrite     -0.22   -1.51   -1.28  MgSO4:5H2O
	Schoenite         0.89   -3.44   -4.33  K2Mg(SO4)2:6H2O
	Sylvite           0.00    0.90    0.90  KCl

------------------
End of simulation.
------------------

------------------------------------
Reading input data for simulation 6.
------------------------------------

	        SOLUTION 1
	        units mol/kgw
	        pH    7
	        temp  25
	        EQUILIBRIUM_PHASES 1
	        Halite       0 10
	        Sylvite      0 10
	        Bischofite   0 0
	        Carnallite   0 0
	        Epsomite     0 0
	        Kieserite    0 0
	        REACTION
	        MgCl2 0
	        MgSO4 5
	END
-------------------------------------------
Beginning of initial solution calculations.
-------------------------------------------

Initial solution 1.	

-----------------------------Solution composition------------------------------

	Elements           Molality       Moles

	Pure water     

----------------------------Description of solution----------------------------

                                       pH  =   7.000    
                                       pe  =   4.000    
       Specific Conductance (uS/cm, 25 oC) = 0
                          Density (g/cm3)  =   0.99705
                        Activity of water  =   1.000
                           Ionic strength  =  1.003e-007
                       Mass of water (kg)  =  1.000e+000
                 Total alkalinity (eq/kg)  =  4.618e-010
                    Total carbon (mol/kg)  =  0.000e+000
                       Total CO2 (mol/kg)  =  0.000e+000
                      Temperature (deg C)  =  25.000
                  Electrical balance (eq)  = -4.618e-010
 Percent error, 100*(Cat-|An|)/(Cat+|An|)  =  -0.23
                               Iterations  =   2
                         Gamma iterations  =   2
                      Osmotic coefficient  =   0.99988
                         Density of water  =   0.99706
                                  Total H  = 1.110124e+002
                                  Total O  = 5.550622e+001

----------------------------Distribution of species----------------------------

                                                           MacInnes   MacInnes
	                               MacInnes    Log       Log         Log 
   Species                 Molality    Activity  Molality  Activity     Gamma

   OH-                   1.005e-007  1.005e-007    -6.998    -6.998    -0.000
   H+                    1.000e-007  1.000e-007    -7.000    -7.000    -0.000
   H2O                   5.551e+001  1.000e+000     1.744    -0.000     0.000

------------------------------Saturation indices-------------------------------

	Phase               SI log IAP  log KT

	H2O(g)           -1.51   -0.00    1.51  H2O

-----------------------------------------
Beginning of batch-reaction calculations.
-----------------------------------------

Reaction step 1.

WARNING: Maximum iterations exceeded, 200

WARNING: Numerical method failed with this set of convergence parameters.

WARNING: Trying smaller step size, pe step size 10, 5 ... 

Using solution 1.	
Using pure phase assemblage 1.	
Using reaction 1.	

Reaction 1.	Irreversible reaction defined in simulation 6.

	 1.000e+000 moles of the following reaction have been added:

	                 Relative
	Reactant            moles

	MgCl2                0.00000
	MgSO4                5.00000

	                 Relative
	Element             moles
	Cl                   0.00000
	Mg                   5.00000
	O                   20.00000
	S                    5.00000

-------------------------------Phase assemblage--------------------------------

                                                      Moles in assemblage
Phase                  SI log IAP  log KT      Initial       Final       Delta

Bischofite          -2.60    1.85    4.46   0.000e+000           0  0.000e+000
Carnallite          -1.58    2.75    4.33   0.000e+000           0  0.000e+000
Epsomite            -0.00   -1.88   -1.88   0.000e+000  3.378e+000  3.378e+000
Halite               0.00    1.57    1.57   1.000e+001  8.371e+000 -1.629e+000
Kieserite           -0.64   -0.76   -0.12   0.000e+000           0  0.000e+000
Sylvite              0.00    0.90    0.90   1.000e+001  8.769e+000 -1.231e+000

-----------------------------Solution composition------------------------------

	Elements           Molality       Moles

	Cl               4.982e+000  2.860e+000
	K                2.144e+000  1.231e+000
	Mg               2.826e+000  1.622e+000
	Na               2.838e+000  1.629e+000
	S                2.826e+000  1.622e+000

----------------------------Description of solution----------------------------

                                       pH  =   5.129      Charge balance
                                       pe  =   4.000      Adjusted to redox equilibrium
       Specific Conductance (uS/cm, 25 oC) = 785030
                          Density (g/cm3)  =   1.38603
                        Activity of water  =   0.651
                           Ionic strength  =  1.629e+001
                       Mass of water (kg)  =  5.741e-001
                 Total alkalinity (eq/kg)  =  8.044e-010
                    Total carbon (mol/kg)  =  0.000e+000
                       Total CO2 (mol/kg)  =  0.000e+000
                      Temperature (deg C)  =  25.000
                  Electrical balance (eq)  = -4.640e-010
 Percent error, 100*(Cat-|An|)/(Cat+|An|)  =  -0.00
                               Iterations  =  17
                         Gamma iterations  =  17
                      Osmotic coefficient  =   1.52610
                         Density of water  =   0.99706
                                  Total H  = 6.372730e+001
                                  Total O  = 3.835361e+001

----------------------------Distribution of species----------------------------

                                                           MacInnes   MacInnes
	                               MacInnes    Log       Log         Log 
   Species                 Molality    Activity  Molality  Activity     Gamma

   H+                    9.270e-008  7.428e-006    -7.033    -5.129     1.904
   OH-                   1.437e-008  8.803e-010    -7.843    -9.055    -1.213
   H2O                   5.551e+001  6.509e-001     1.744    -0.186     0.000
Cl              4.982e+000
   Cl-                   4.982e+000  4.616e+000     0.697     0.664    -0.033
K               2.144e+000
   K+                    2.144e+000  1.720e+000     0.331     0.236    -0.096
Mg              2.826e+000
   Mg+2                  2.826e+000  4.398e+001     0.451     1.643     1.192
   MgOH+                 8.651e-006  5.982e-006    -5.063    -5.223    -0.160
Na              2.838e+000
   Na+                   2.838e+000  8.050e+000     0.453     0.906     0.453
S(6)            2.826e+000
   SO4-2                 2.826e+000  6.042e-003     0.451    -2.219    -2.670
   HSO4-                 8.572e-006  4.276e-006    -5.067    -5.369    -0.302

------------------------------Saturation indices-------------------------------

	Phase               SI log IAP  log KT

	Arcanite          0.03   -1.75   -1.78  K2SO4
	Bischofite       -2.60    1.85    4.46  MgCl2:6H2O
	Bloedite          0.62   -1.73   -2.35  Na2Mg(SO4)2:4H2O
	Brucite          -5.59  -16.47  -10.88  Mg(OH)2
	Carnallite       -1.58    2.75    4.33  KMgCl3:6H2O
	Epsomite         -0.00   -1.88   -1.88  MgSO4:7H2O
	Glaserite         0.98   -2.83   -3.80  NaK3(SO4)2
	H2O(g)           -1.70   -0.19    1.51  H2O
	Halite            0.00    1.57    1.57  NaCl
	Hexahydrite      -0.06   -1.69   -1.63  MgSO4:6H2O
	Kainite          -0.04   -0.24   -0.19  KMgClSO4:3H2O
	Kieserite        -0.64   -0.76   -0.12  MgSO4:H2O
	Leonhardite      -0.43   -1.32   -0.89  MgSO4:4H2O
	Leonite           0.91   -3.07   -3.98  K2Mg(SO4)2:4H2O
	Mirabilite       -1.06   -2.27   -1.21  Na2SO4:10H2O
	Misenite        -33.62  -44.42  -10.81  K8H6(SO4)7
	Pentahydrite     -0.22   -1.51   -1.28  MgSO4:5H2O
	Schoenite         0.89   -3.44   -4.33  K2Mg(SO4)2:6H2O
	Sylvite           0.00    0.90    0.90  KCl

------------------
End of simulation.
------------------

------------------------------------
Reading input data for simulation 7.
------------------------------------

	        SOLUTION 1
	        units mol/kgw
	        pH    7
	        temp  25
	        EQUILIBRIUM_PHASES 1
	        Halite       0 10
	        Sylvite      0 10
	        Bischofite   0 0
	        Carnallite   0 0
	        Epsomite     0 0
	        Kieserite    0 0
	        REACTION
	        MgCl2 1
	        MgSO4 0
	END
-------------------------------------------
Beginning of initial solution calculations.
-------------------------------------------

Initial solution 1.	

-----------------------------Solution composition------------------------------

	Elements           Molality       Moles

	Pure water     

----------------------------Description of solution----------------------------

                                       pH  =   7.000    
                                       pe  =   4.000    
       Specific Conductance (uS/cm, 25 oC) = 0
                          Density (g/cm3)  =   0.99705
                        Activity of water  =   1.000
                           Ionic strength  =  1.003e-007
                       Mass of water (kg)  =  1.000e+000
                 Total alkalinity (eq/kg)  =  4.618e-010
                    Total carbon (mol/kg)  =  0.000e+000
                       Total CO2 (mol/kg)  =  0.000e+000
                      Temperature (deg C)  =  25.000
                  Electrical balance (eq)  = -4.618e-010
 Percent error, 100*(Cat-|An|)/(Cat+|An|)  =  -0.23
                               Iterations  =   2
                         Gamma iterations  =   2
                      Osmotic coefficient  =   0.99988
                         Density of water  =   0.99706
                                  Total H  = 1.110124e+002
                                  Total O  = 5.550622e+001

----------------------------Distribution of species----------------------------

                                                           MacInnes   MacInnes
	                               MacInnes    Log       Log         Log 
   Species                 Molality    Activity  Molality  Activity     Gamma

   OH-                   1.005e-007  1.005e-007    -6.998    -6.998    -0.000
   H+                    1.000e-007  1.000e-007    -7.000    -7.000    -0.000
   H2O                   5.551e+001  1.000e+000     1.744    -0.000     0.000

------------------------------Saturation indices-------------------------------

	Phase               SI log IAP  log KT

	H2O(g)           -1.51   -0.00    1.51  H2O

-----------------------------------------
Beginning of batch-reaction calculations.
-----------------------------------------

Reaction step 1.

WARNING: Element S is contained in Epsomite (which has 0.0 mass),	
but is not in solution or other phases.
WARNING: Element S is contained in Kieserite (which has 0.0 mass),	
but is not in solution or other phases.
WARNING: Element in phase, Epsomite, is not in model.
WARNING: Element in phase, Kieserite, is not in model.
WARNING: Maximum iterations exceeded, 200

WARNING: Numerical method failed with this set of convergence parameters.

WARNING: Trying smaller step size, pe step size 10, 5 ... 

WARNING: Element S is contained in Epsomite (which has 0.0 mass),	
but is not in solution or other phases.
WARNING: Element S is contained in Kieserite (which has 0.0 mass),	
but is not in solution or other phases.
Using solution 1.	
Using pure phase assemblage 1.	
Using reaction 1.	

Reaction 1.	Irreversible reaction defined in simulation 7.

	 1.000e+000 moles of the following reaction have been added:

	                 Relative
	Reactant            moles

	MgCl2                1.00000
	MgSO4                0.00000

	                 Relative
	Element             moles
	Cl                   2.00000
	Mg                   1.00000
	O                    0.00000
	S                    0.00000

-------------------------------Phase assemblage--------------------------------

                                                      Moles in assemblage
Phase                  SI log IAP  log KT      Initial       Final       Delta

Bischofite          -2.96    1.49    4.46   0.000e+000           0  0.000e+000
Carnallite          -1.94    2.39    4.33   0.000e+000           0  0.000e+000
Epsomite             Element not present.   0.000e+000           0  0.000e+000
Halite               0.00    1.57    1.57   1.000e+001  6.451e+000 -3.549e+000
Kieserite            Element not present.   0.000e+000           0  0.000e+000
Sylvite              0.00    0.90    0.90   1.000e+001  8.223e+000 -1.777e+000

-----------------------------Solution composition------------------------------

	Elements           Molality       Moles

	Cl               7.326e+000  7.326e+000
	K                1.777e+000  1.777e+000
	Mg               1.000e+000  1.000e+000
	Na               3.549e+000  3.549e+000

----------------------------Description of solution----------------------------

                                       pH  =   4.844      Charge balance
                                       pe  =   4.000      Adjusted to redox equilibrium
       Specific Conductance (uS/cm, 25 oC) = 558117
                          Density (g/cm3)  =   1.24556
                        Activity of water  =   0.705
                           Ionic strength  =  8.326e+000
                       Mass of water (kg)  =  1.000e+000
                 Total alkalinity (eq/kg)  =  4.618e-010
                    Total carbon (mol/kg)  =  0.000e+000
                       Total CO2 (mol/kg)  =  0.000e+000
                      Temperature (deg C)  =  25.000
                  Electrical balance (eq)  = -4.618e-010
 Percent error, 100*(Cat-|An|)/(Cat+|An|)  =  -0.00
                               Iterations  =  16
                         Gamma iterations  =  16
                      Osmotic coefficient  =   1.42063
                         Density of water  =   0.99706
                                  Total H  = 1.110124e+002
                                  Total O  = 5.550622e+001

----------------------------Distribution of species----------------------------

                                                           MacInnes   MacInnes
	                               MacInnes    Log       Log         Log 
   Species                 Molality    Activity  Molality  Activity     Gamma

   H+                    1.300e-006  1.432e-005    -5.886    -4.844     1.042
   OH-                   2.666e-009  4.948e-010    -8.574    -9.306    -0.731
   H2O                   5.551e+001  7.051e-001     1.744    -0.152     0.000
Cl              7.326e+000
   Cl-                   7.326e+000  4.894e+000     0.865     0.690    -0.175
K               1.777e+000
   K+                    1.777e+000  1.622e+000     0.250     0.210    -0.040
Mg              1.000e+000
   Mg+2                  1.000e+000  1.055e+001    -0.000     1.023     1.023
   MgOH+                 1.298e-006  8.063e-007    -5.887    -6.093    -0.207
Na              3.549e+000
   Na+                   3.549e+000  7.592e+000     0.550     0.880     0.330

------------------------------Saturation indices-------------------------------

	Phase               SI log IAP  log KT

	Bischofite       -2.96    1.49    4.46  MgCl2:6H2O
	Brucite          -6.71  -17.59  -10.88  Mg(OH)2
	Carnallite       -1.94    2.39    4.33  KMgCl3:6H2O
	H2O(g)           -1.66   -0.15    1.51  H2O
	Halite            0.00    1.57    1.57  NaCl
	Sylvite           0.00    0.90    0.90  KCl

------------------
End of simulation.
------------------

------------------------------------
Reading input data for simulation 8.
------------------------------------

	        SOLUTION 1
	        units mol/kgw
	        pH    7
	        temp  25
	        EQUILIBRIUM_PHASES 1
	        Halite       0 10
	        Sylvite      0 10
	        Bischofite   0 0
	        Carnallite   0 0
	        Epsomite     0 0
	        Kieserite    0 0
	        REACTION
	        MgCl2 1
	        MgSO4 1
	END
-------------------------------------------
Beginning of initial solution calculations.
-------------------------------------------

Initial solution 1.	

-----------------------------Solution composition------------------------------

	Elements           Molality       Moles

	Pure water     

----------------------------Description of solution----------------------------

                                       pH  =   7.000    
                                       pe  =   4.000    
       Specific Conductance (uS/cm, 25 oC) = 0
                          Density (g/cm3)  =   0.99705
                        Activity of water  =   1.000
                           Ionic strength  =  1.003e-007
                       Mass of water (kg)  =  1.000e+000
                 Total alkalinity (eq/kg)  =  4.618e-010
                    Total carbon (mol/kg)  =  0.000e+000
                       Total CO2 (mol/kg)  =  0.000e+000
                      Temperature (deg C)  =  25.000
                  Electrical balance (eq)  = -4.618e-010
 Percent error, 100*(Cat-|An|)/(Cat+|An|)  =  -0.23
                               Iterations  =   2
                         Gamma iterations  =   2
                      Osmotic coefficient  =   0.99988
                         Density of water  =   0.99706
                                  Total H  = 1.110124e+002
                                  Total O  = 5.550622e+001

----------------------------Distribution of species----------------------------

                                                           MacInnes   MacInnes
	                               MacInnes    Log       Log         Log 
   Species                 Molality    Activity  Molality  Activity     Gamma

   OH-                   1.005e-007  1.005e-007    -6.998    -6.998    -0.000
   H+                    1.000e-007  1.000e-007    -7.000    -7.000    -0.000
   H2O                   5.551e+001  1.000e+000     1.744    -0.000     0.000

------------------------------Saturation indices-------------------------------

	Phase               SI log IAP  log KT

	H2O(g)           -1.51   -0.00    1.51  H2O

-----------------------------------------
Beginning of batch-reaction calculations.
-----------------------------------------

Reaction step 1.

Using solution 1.	
Using pure phase assemblage 1.	
Using reaction 1.	

Reaction 1.	Irreversible reaction defined in simulation 8.

	 1.000e+000 moles of the following reaction have been added:

	                 Relative
	Reactant            moles

	MgCl2                1.00000
	MgSO4                1.00000

	                 Relative
	Element             moles
	Cl                   2.00000
	Mg                   2.00000
	O                    4.00000
	S                    1.00000

-------------------------------Phase assemblage--------------------------------

                                                      Moles in assemblage
Phase                  SI log IAP  log KT      Initial       Final       Delta

Bischofite          -2.60    1.86    4.46   0.000e+000           0  0.000e+000
Carnallite          -1.57    2.76    4.33   0.000e+000           0  0.000e+000
Epsomite            -0.36   -2.24   -1.88   0.000e+000           0  0.000e+000
Halite               0.00    1.57    1.57   1.000e+001  7.178e+000 -2.822e+000
Kieserite           -1.09   -1.22   -0.12   0.000e+000           0  0.000e+000
Sylvite              0.00    0.90    0.90   1.000e+001  8.274e+000 -1.726e+000

-----------------------------Solution composition------------------------------

	Elements           Molality       Moles

	Cl               6.548e+000  6.548e+000
	K                1.726e+000  1.726e+000
	Mg               2.000e+000  2.000e+000
	Na               2.822e+000  2.822e+000
	S                1.000e+000  1.000e+000

----------------------------Description of solution----------------------------

                                       pH  =   5.000      Charge balance
                                       pe  =   4.000      Adjusted to redox equilibrium
       Specific Conductance (uS/cm, 25 oC) = 648999
                          Density (g/cm3)  =   1.31040
                        Activity of water  =   0.675
                           Ionic strength  =  1.155e+001
                       Mass of water (kg)  =  1.000e+000
                 Total alkalinity (eq/kg)  =  4.617e-010
                    Total carbon (mol/kg)  =  0.000e+000
                       Total CO2 (mol/kg)  =  0.000e+000
                      Temperature (deg C)  =  25.000
                  Electrical balance (eq)  = -3.168e-008
 Percent error, 100*(Cat-|An|)/(Cat+|An|)  =  -0.00
                               Iterations  =  36
                         Gamma iterations  =   8
                      Osmotic coefficient  =   1.54709
                         Density of water  =   0.99706
                                  Total H  = 1.110124e+002
                                  Total O  = 5.950622e+001

----------------------------Distribution of species----------------------------

                                                           MacInnes   MacInnes
	                               MacInnes    Log       Log         Log 
   Species                 Molality    Activity  Molality  Activity     Gamma

   H+                    4.816e-007  9.996e-006    -6.317    -5.000     1.317
   OH-                   7.366e-009  6.785e-010    -8.133    -9.168    -1.036
   H2O                   5.551e+001  6.751e-001     1.744    -0.171     0.000
Cl              6.548e+000
   Cl-                   6.548e+000  5.012e+000     0.816     0.700    -0.116
K               1.726e+000
   K+                    1.726e+000  1.584e+000     0.237     0.200    -0.037
Mg              2.000e+000
   Mg+2                  2.000e+000  3.025e+001     0.301     1.481     1.180
   MgOH+                 5.002e-006  3.171e-006    -5.301    -5.499    -0.198
Na              2.822e+000
   Na+                   2.822e+000  7.413e+000     0.451     0.870     0.419
S(6)            1.000e+000
   SO4-2                 1.000e+000  2.972e-003    -0.000    -2.527    -2.527
   HSO4-                 4.527e-006  2.830e-006    -5.344    -5.548    -0.204

------------------------------Saturation indices-------------------------------

	Phase               SI log IAP  log KT

	Arcanite         -0.35   -2.13   -1.78  K2SO4
	Bischofite       -2.60    1.86    4.46  MgCl2:6H2O
	Bloedite         -0.17   -2.52   -2.35  Na2Mg(SO4)2:4H2O
	Brucite          -5.98  -16.86  -10.88  Mg(OH)2
	Carnallite       -1.57    2.76    4.33  KMgCl3:6H2O
	Epsomite         -0.36   -2.24   -1.88  MgSO4:7H2O
	Glaserite         0.22   -3.58   -3.80  NaK3(SO4)2
	H2O(g)           -1.68   -0.17    1.51  H2O
	Halite            0.00    1.57    1.57  NaCl
	Hexahydrite      -0.44   -2.07   -1.63  MgSO4:6H2O
	Kainite          -0.47   -0.66   -0.19  KMgClSO4:3H2O
	Kieserite        -1.09   -1.22   -0.12  MgSO4:H2O
	Leonhardite      -0.84   -1.73   -0.89  MgSO4:4H2O
	Leonite           0.12   -3.86   -3.98  K2Mg(SO4)2:4H2O
	Mirabilite       -1.28   -2.49   -1.21  Na2SO4:10H2O
	Misenite        -35.29  -46.09  -10.81  K8H6(SO4)7
	Pentahydrite     -0.61   -1.90   -1.28  MgSO4:5H2O
	Schoenite         0.13   -4.20   -4.33  K2Mg(SO4)2:6H2O
	Sylvite           0.00    0.90    0.90  KCl

------------------
End of simulation.
------------------

------------------------------------
Reading input data for simulation 9.
------------------------------------

	        SOLUTION 1
	        units mol/kgw
	        pH    7
	        temp  25
	        EQUILIBRIUM_PHASES 1
	        Halite       0 10
	        Sylvite      0 10
	        Bischofite   0 0
	        Carnallite   0 0
	        Epsomite     0 0
	        Kieserite    0 0
	        REACTION
	        MgCl2 1
	        MgSO4 2
	END
-------------------------------------------
Beginning of initial solution calculations.
-------------------------------------------

Initial solution 1.	

-----------------------------Solution composition------------------------------

	Elements           Molality       Moles

	Pure water     

----------------------------Description of solution----------------------------

                                       pH  =   7.000    
                                       pe  =   4.000    
       Specific Conductance (uS/cm, 25 oC) = 0
                          Density (g/cm3)  =   0.99705
                        Activity of water  =   1.000
                           Ionic strength  =  1.003e-007
                       Mass of water (kg)  =  1.000e+000
                 Total alkalinity (eq/kg)  =  4.618e-010
                    Total carbon (mol/kg)  =  0.000e+000
                       Total CO2 (mol/kg)  =  0.000e+000
                      Temperature (deg C)  =  25.000
                  Electrical balance (eq)  = -4.618e-010
 Percent error, 100*(Cat-|An|)/(Cat+|An|)  =  -0.23
                               Iterations  =   2
                         Gamma iterations  =   2
                      Osmotic coefficient  =   0.99988
                         Density of water  =   0.99706
                                  Total H  = 1.110124e+002
                                  Total O  = 5.550622e+001

----------------------------Distribution of species----------------------------

                                                           MacInnes   MacInnes
	                               MacInnes    Log       Log         Log 
   Species                 Molality    Activity  Molality  Activity     Gamma

   OH-                   1.005e-007  1.005e-007    -6.998    -6.998    -0.000
   H+                    1.000e-007  1.000e-007    -7.000    -7.000    -0.000
   H2O                   5.551e+001  1.000e+000     1.744    -0.000     0.000

------------------------------Saturation indices-------------------------------

	Phase               SI log IAP  log KT

	H2O(g)           -1.51   -0.00    1.51  H2O

-----------------------------------------
Beginning of batch-reaction calculations.
-----------------------------------------

Reaction step 1.

Using solution 1.	
Using pure phase assemblage 1.	
Using reaction 1.	

Reaction 1.	Irreversible reaction defined in simulation 9.

	 1.000e+000 moles of the following reaction have been added:

	                 Relative
	Reactant            moles

	MgCl2                1.00000
	MgSO4                2.00000

	                 Relative
	Element             moles
	Cl                   2.00000
	Mg                   3.00000
	O                    8.00000
	S                    2.00000

-------------------------------Phase assemblage--------------------------------

                                                      Moles in assemblage
Phase                  SI log IAP  log KT      Initial       Final       Delta

Bischofite          -2.32    2.13    4.46   0.000e+000           0  0.000e+000
Carnallite          -1.30    3.03    4.33   0.000e+000           0  0.000e+000
Epsomite            -0.00   -1.88   -1.88   0.000e+000  1.260e-001  1.260e-001
Halite               0.00    1.57    1.57   1.000e+001  7.869e+000 -2.131e+000
Kieserite           -0.61   -0.74   -0.12   0.000e+000           0  0.000e+000
Sylvite              0.00    0.90    0.90   1.000e+001  8.380e+000 -1.620e+000

-----------------------------Solution composition------------------------------

	Elements           Molality       Moles

	Cl               5.844e+000  5.751e+000
	K                1.646e+000  1.620e+000
	Mg               2.920e+000  2.874e+000
	Na               2.165e+000  2.131e+000
	S                1.904e+000  1.874e+000

----------------------------Description of solution----------------------------

                                       pH  =   4.881      Charge balance
                                       pe  =   4.000      Adjusted to redox equilibrium
       Specific Conductance (uS/cm, 25 oC) = 774613
                          Density (g/cm3)  =   1.36601
                        Activity of water  =   0.645
                           Ionic strength  =  1.448e+001
                       Mass of water (kg)  =  9.841e-001
                 Total alkalinity (eq/kg)  =  4.692e-010
                    Total carbon (mol/kg)  =  0.000e+000
                       Total CO2 (mol/kg)  =  0.000e+000
                      Temperature (deg C)  =  25.000
                  Electrical balance (eq)  = -2.285e-009
 Percent error, 100*(Cat-|An|)/(Cat+|An|)  =  -0.00
                               Iterations  =  45
                         Gamma iterations  =  10
                      Osmotic coefficient  =   1.68282
                         Density of water  =   0.99706
                                  Total H  = 1.092481e+002
                                  Total O  = 6.211999e+001

----------------------------Distribution of species----------------------------

                                                           MacInnes   MacInnes
	                               MacInnes    Log       Log         Log 
   Species                 Molality    Activity  Molality  Activity     Gamma

   H+                    3.036e-007  1.315e-005    -6.518    -4.881     1.637
   OH-                   1.003e-008  4.926e-010    -7.999    -9.308    -1.309
   H2O                   5.551e+001  6.447e-001     1.744    -0.191     0.000
Cl              5.844e+000
   Cl-                   5.844e+000  5.047e+000     0.767     0.703    -0.064
K               1.646e+000
   K+                    1.646e+000  1.573e+000     0.216     0.197    -0.020
Mg              2.920e+000
   Mg+2                  2.920e+000  7.412e+001     0.465     1.870     1.404
   MgOH+                 6.937e-006  5.641e-006    -5.159    -5.249    -0.090
Na              2.165e+000
   Na+                   2.165e+000  7.361e+000     0.336     0.867     0.531
S(6)            1.904e+000
   SO4-2                 1.904e+000  3.835e-003     0.280    -2.416    -2.696
   HSO4-                 6.643e-006  4.803e-006    -5.178    -5.318    -0.141

------------------------------Saturation indices-------------------------------

	Phase               SI log IAP  log KT

	Arcanite         -0.25   -2.02   -1.78  K2SO4
	Bischofite       -2.32    2.13    4.46  MgCl2:6H2O
	Bloedite          0.36   -1.99   -2.35  Na2Mg(SO4)2:4H2O
	Brucite          -5.87  -16.75  -10.88  Mg(OH)2
	Carnallite       -1.30    3.03    4.33  KMgCl3:6H2O
	Epsomite         -0.00   -1.88   -1.88  MgSO4:7H2O
	Glaserite         0.43   -3.38   -3.80  NaK3(SO4)2
	H2O(g)           -1.70   -0.19    1.51  H2O
	Halite            0.00    1.57    1.57  NaCl
	Hexahydrite      -0.06   -1.69   -1.63  MgSO4:6H2O
	Kainite          -0.03   -0.22   -0.19  KMgClSO4:3H2O
	Kieserite        -0.61   -0.74   -0.12  MgSO4:H2O
	Leonhardite      -0.42   -1.31   -0.89  MgSO4:4H2O
	Leonite           0.65   -3.33   -3.98  K2Mg(SO4)2:4H2O
	Mirabilite       -1.38   -2.59   -1.21  Na2SO4:10H2O
	Misenite        -33.82  -44.63  -10.81  K8H6(SO4)7
	Pentahydrite     -0.21   -1.50   -1.28  MgSO4:5H2O
	Schoenite         0.62   -3.71   -4.33  K2Mg(SO4)2:6H2O
	Sylvite           0.00    0.90    0.90  KCl

------------------
End of simulation.
------------------

-------------------------------------
Reading input data for simulation 10.
-------------------------------------

	        SOLUTION 1
	        units mol/kgw
	        pH    7
	        temp  25
	        EQUILIBRIUM_PHASES 1
	        Halite       0 10
	        Sylvite      0 10
	        Bischofite   0 0
	        Carnallite   0 0
	        Epsomite     0 0
	        Kieserite    0 0
	        REACTION
	        MgCl2 1
	        MgSO4 3
	END
-------------------------------------------
Beginning of initial solution calculations.
-------------------------------------------

Initial solution 1.	

-----------------------------Solution composition------------------------------

	Elements           Molality       Moles

	Pure water     

----------------------------Description of solution----------------------------

                                       pH  =   7.000    
                                       pe  =   4.000    
       Specific Conductance (uS/cm, 25 oC) = 0
                          Density (g/cm3)  =   0.99705
                        Activity of water  =   1.000
                           Ionic strength  =  1.003e-007
                       Mass of water (kg)  =  1.000e+000
                 Total alkalinity (eq/kg)  =  4.618e-010
                    Total carbon (mol/kg)  =  0.000e+000
                       Total CO2 (mol/kg)  =  0.000e+000
                      Temperature (deg C)  =  25.000
                  Electrical balance (eq)  = -4.618e-010
 Percent error, 100*(Cat-|An|)/(Cat+|An|)  =  -0.23
                               Iterations  =   2
                         Gamma iterations  =   2
                      Osmotic coefficient  =   0.99988
                         Density of water  =   0.99706
                                  Total H  = 1.110124e+002
                                  Total O  = 5.550622e+001

----------------------------Distribution of species----------------------------

                                                           MacInnes   MacInnes
	                               MacInnes    Log       Log         Log 
   Species                 Molality    Activity  Molality  Activity     Gamma

   OH-                   1.005e-007  1.005e-007    -6.998    -6.998    -0.000
   H+                    1.000e-007  1.000e-007    -7.000    -7.000    -0.000
   H2O                   5.551e+001  1.000e+000     1.744    -0.000     0.000

------------------------------Saturation indices-------------------------------

	Phase               SI log IAP  log KT

	H2O(g)           -1.51   -0.00    1.51  H2O

-----------------------------------------
Beginning of batch-reaction calculations.
-----------------------------------------

Reaction step 1.

Using solution 1.	
Using pure phase assemblage 1.	
Using reaction 1.	

Reaction 1.	Irreversible reaction defined in simulation 10.

	 1.000e+000 moles of the following reaction have been added:

	                 Relative
	Reactant            moles

	MgCl2                1.00000
	MgSO4                3.00000

	                 Relative
	Element             moles
	Cl                   2.00000
	Mg                   4.00000
	O                   12.00000
	S                    3.00000

-------------------------------Phase assemblage--------------------------------

                                                      Moles in assemblage
Phase                  SI log IAP  log KT      Initial       Final       Delta

Bischofite          -2.24    2.22    4.46   0.000e+000           0  0.000e+000
Carnallite          -1.21    3.12    4.33   0.000e+000           0  0.000e+000
Epsomite             0.00   -1.88   -1.88   0.000e+000  1.632e+000  1.632e+000
Halite               0.00    1.57    1.57   1.000e+001  8.418e+000 -1.582e+000
Kieserite           -0.60   -0.72   -0.12   0.000e+000           0  0.000e+000
Sylvite              0.00    0.90    0.90   1.000e+001  8.781e+000 -1.219e+000

-----------------------------Solution composition------------------------------

	Elements           Molality       Moles

	Cl               6.045e+000  4.801e+000
	K                1.535e+000  1.219e+000
	Mg               2.982e+000  2.368e+000
	Na               1.991e+000  1.582e+000
	S                1.723e+000  1.368e+000

----------------------------Description of solution----------------------------

                                       pH  =   4.811      Charge balance
                                       pe  =   4.000      Adjusted to redox equilibrium
       Specific Conductance (uS/cm, 25 oC) = 782592
                          Density (g/cm3)  =   1.36303
                        Activity of water  =   0.641
                           Ionic strength  =  1.419e+001
                       Mass of water (kg)  =  7.942e-001
                 Total alkalinity (eq/kg)  =  5.814e-010
                    Total carbon (mol/kg)  =  0.000e+000
                       Total CO2 (mol/kg)  =  0.000e+000
                      Temperature (deg C)  =  25.000
                  Electrical balance (eq)  = -4.651e-010
 Percent error, 100*(Cat-|An|)/(Cat+|An|)  =  -0.00
                               Iterations  =  87
                         Gamma iterations  =  18
                      Osmotic coefficient  =   1.73055
                         Density of water  =   0.99706
                                  Total H  = 8.816518e+001
                                  Total O  = 4.955480e+001

----------------------------Distribution of species----------------------------

                                                           MacInnes   MacInnes
	                               MacInnes    Log       Log         Log 
   Species                 Molality    Activity  Molality  Activity     Gamma

   H+                    3.787e-007  1.546e-005    -6.422    -4.811     1.611
   OH-                   9.243e-009  4.164e-010    -8.034    -9.381    -1.346
   H2O                   5.551e+001  6.408e-001     1.744    -0.193     0.000
Cl              6.045e+000
   Cl-                   6.045e+000  5.162e+000     0.781     0.713    -0.069
K               1.535e+000
   K+                    1.535e+000  1.538e+000     0.186     0.187     0.001
Mg              2.982e+000
   Mg+2                  2.982e+000  8.907e+001     0.474     1.950     1.475
   MgOH+                 6.627e-006  5.731e-006    -5.179    -5.242    -0.063
Na              1.991e+000
   Na+                   1.991e+000  7.197e+000     0.299     0.857     0.558
S(6)            1.723e+000
   SO4-2                 1.723e+000  3.330e-003     0.236    -2.478    -2.714
   HSO4-                 6.257e-006  4.904e-006    -5.204    -5.309    -0.106

------------------------------Saturation indices-------------------------------

	Phase               SI log IAP  log KT

	Arcanite         -0.33   -2.10   -1.78  K2SO4
	Bischofite       -2.24    2.22    4.46  MgCl2:6H2O
	Bloedite          0.28   -2.06   -2.35  Na2Mg(SO4)2:4H2O
	Brucite          -5.93  -16.81  -10.88  Mg(OH)2
	Carnallite       -1.21    3.12    4.33  KMgCl3:6H2O
	Epsomite          0.00   -1.88   -1.88  MgSO4:7H2O
	Glaserite         0.27   -3.54   -3.80  NaK3(SO4)2
	H2O(g)           -1.70   -0.19    1.51  H2O
	Halite            0.00    1.57    1.57  NaCl
	Hexahydrite      -0.05   -1.69   -1.63  MgSO4:6H2O
	Kainite          -0.01   -0.21   -0.19  KMgClSO4:3H2O
	Kieserite        -0.60   -0.72   -0.12  MgSO4:H2O
	Leonhardite      -0.41   -1.30   -0.89  MgSO4:4H2O
	Leonite           0.57   -3.40   -3.98  K2Mg(SO4)2:4H2O
	Mirabilite       -1.48   -2.70   -1.21  Na2SO4:10H2O
	Misenite        -33.91  -44.71  -10.81  K8H6(SO4)7
	Pentahydrite     -0.21   -1.49   -1.28  MgSO4:5H2O
	Schoenite         0.54   -3.79   -4.33  K2Mg(SO4)2:6H2O
	Sylvite           0.00    0.90    0.90  KCl

------------------
End of simulation.
------------------

-------------------------------------
Reading input data for simulation 11.
-------------------------------------

	        SOLUTION 1
	        units mol/kgw
	        pH    7
	        temp  25
	        EQUILIBRIUM_PHASES 1
	        Halite       0 10
	        Sylvite      0 10
	        Bischofite   0 0
	        Carnallite   0 0
	        Epsomite     0 0
	        Kieserite    0 0
	        REACTION
	        MgCl2 1
	        MgSO4 4
	END
-------------------------------------------
Beginning of initial solution calculations.
-------------------------------------------

Initial solution 1.	

-----------------------------Solution composition------------------------------

	Elements           Molality       Moles

	Pure water     

----------------------------Description of solution----------------------------

                                       pH  =   7.000    
                                       pe  =   4.000    
       Specific Conductance (uS/cm, 25 oC) = 0
                          Density (g/cm3)  =   0.99705
                        Activity of water  =   1.000
                           Ionic strength  =  1.003e-007
                       Mass of water (kg)  =  1.000e+000
                 Total alkalinity (eq/kg)  =  4.618e-010
[...]

	Elements           Molality       Moles

	Cl               8.392e+000  1.342e+000
	K                5.854e-001  9.359e-002
	Mg               4.428e+000  7.080e-001
	Na               4.619e-001  7.386e-002
	S                7.554e-001  1.208e-001

----------------------------Description of solution----------------------------

                                       pH  =   3.830      Charge balance
                                       pe  =   4.000      Adjusted to redox equilibrium
       Specific Conductance (uS/cm, 25 oC) = 932831
                          Density (g/cm3)  =   1.42175
                        Activity of water  =   0.511
                           Ionic strength  =  1.509e+001
                       Mass of water (kg)  =  1.599e-001
                 Total alkalinity (eq/kg)  =  2.888e-009
                    Total carbon (mol/kg)  =  0.000e+000
                       Total CO2 (mol/kg)  =  0.000e+000
                      Temperature (deg C)  =  25.000
                  Electrical balance (eq)  = -2.140e-009
 Percent error, 100*(Cat-|An|)/(Cat+|An|)  =  -0.00
                               Iterations  =  84
                         Gamma iterations  =  14
                      Osmotic coefficient  =   2.55111
                         Density of water  =   0.99706
                                  Total H  = 1.774964e+001
                                  Total O  = 9.357922e+000

----------------------------Distribution of species----------------------------

                                                           MacInnes   MacInnes
	                               MacInnes    Log       Log         Log 
   Species                 Molality    Activity  Molality  Activity     Gamma

   H+                    1.417e-006  1.478e-004    -5.849    -3.830     2.018
   OH-                   3.509e-009  3.470e-011    -8.455   -10.460    -2.005
   H2O                   5.551e+001  5.107e-001     1.744    -0.292     0.000
Cl              8.392e+000
   Cl-                   8.392e+000  7.425e+000     0.924     0.871    -0.053
K               5.854e-001
   K+                    5.854e-001  1.069e+000    -0.233     0.029     0.262
Mg              4.428e+000
   Mg+2                  4.428e+000  1.000e+003     0.646     3.440     2.794
   MgOH+                 5.948e-006  1.477e-005    -5.226    -4.831     0.395
Na              4.619e-001
   Na+                   4.619e-001  5.004e+000    -0.335     0.699     1.035
S(6)            7.554e-001
   SO4-2                 7.554e-001  5.275e-004    -0.122    -3.278    -3.156
   HSO4-                 4.532e-006  7.430e-006    -5.344    -5.129     0.215

------------------------------Saturation indices-------------------------------

	Phase               SI log IAP  log KT

	Arcanite         -1.44   -3.22   -1.78  K2SO4
	Bischofite       -1.02    3.43    4.46  MgCl2:6H2O
	Bloedite         -0.54   -2.88   -2.35  Na2Mg(SO4)2:4H2O
	Brucite          -6.60  -17.48  -10.88  Mg(OH)2
	Carnallite        0.00    4.33    4.33  KMgCl3:6H2O
	Epsomite          0.00   -1.88   -1.88  MgSO4:7H2O
	Glaserite        -1.97   -5.77   -3.80  NaK3(SO4)2
	H2O(g)           -1.80   -0.29    1.51  H2O
	Halite            0.00    1.57    1.57  NaCl
	Hexahydrite       0.05   -1.59   -1.63  MgSO4:6H2O
	Kainite           0.38    0.19   -0.19  KMgClSO4:3H2O
	Kieserite        -0.01   -0.13   -0.12  MgSO4:H2O
	Leonhardite      -0.12   -1.01   -0.89  MgSO4:4H2O
	Leonite          -0.25   -4.22   -3.98  K2Mg(SO4)2:4H2O
	Mirabilite       -3.58   -4.80   -1.21  Na2SO4:10H2O
	Misenite        -34.89  -45.69  -10.81  K8H6(SO4)7
	Pentahydrite     -0.01   -1.30   -1.28  MgSO4:5H2O
	Schoenite        -0.48   -4.81   -4.33  K2Mg(SO4)2:6H2O
	Sylvite           0.00    0.90    0.90  KCl

------------------
End of simulation.
------------------

-------------------------------------
Reading input data for simulation 35.
-------------------------------------

	        SOLUTION 1
	        units mol/kgw
	        pH    7
	        temp  25
	        EQUILIBRIUM_PHASES 1
	        Halite       0 10
	        Sylvite      0 10
	        Bischofite   0 0
	        Carnallite   0 0
	        Epsomite     0 0
	        Kieserite    0 0
	        REACTION
	        MgCl2 5
	        MgSO4 4
	END
-------------------------------------------
Beginning of initial solution calculations.
-------------------------------------------

Initial solution 1.	

-----------------------------Solution composition------------------------------

	Elements           Molality       Moles

	Pure water     

----------------------------Description of solution----------------------------

                                       pH  =   7.000    
                                       pe  =   4.000    
       Specific Conductance (uS/cm, 25 oC) = 0
                          Density (g/cm3)  =   0.99705
                        Activity of water  =   1.000
                           Ionic strength  =  1.003e-007
                       Mass of water (kg)  =  1.000e+000
                 Total alkalinity (eq/kg)  =  4.618e-010
                    Total carbon (mol/kg)  =  0.000e+000
                       Total CO2 (mol/kg)  =  0.000e+000
                      Temperature (deg C)  =  25.000
                  Electrical balance (eq)  = -4.618e-010
 Percent error, 100*(Cat-|An|)/(Cat+|An|)  =  -0.23
                               Iterations  =   2
                         Gamma iterations  =   2
                      Osmotic coefficient  =   0.99988
                         Density of water  =   0.99706
                                  Total H  = 1.110124e+002
                                  Total O  = 5.550622e+001

----------------------------Distribution of species----------------------------

                                                           MacInnes   MacInnes
	                               MacInnes    Log       Log         Log 
   Species                 Molality    Activity  Molality  Activity     Gamma

   OH-                   1.005e-007  1.005e-007    -6.998    -6.998    -0.000
   H+                    1.000e-007  1.000e-007    -7.000    -7.000    -0.000
   H2O                   5.551e+001  1.000e+000     1.744    -0.000     0.000

------------------------------Saturation indices-------------------------------

	Phase               SI log IAP  log KT

	H2O(g)           -1.51   -0.00    1.51  H2O

-----------------------------------------
Beginning of batch-reaction calculations.
-----------------------------------------

Reaction step 1.

WARNING: Maximum iterations exceeded, 200

WARNING: Numerical method failed with this set of convergence parameters.

WARNING: Trying smaller step size, pe step size 10, 5 ... 

Using solution 1.	
Using pure phase assemblage 1.	
Using reaction 1.	

Reaction 1.	Irreversible reaction defined in simulation 35.

	 1.000e+000 moles of the following reaction have been added:

	                 Relative
	Reactant            moles

	MgCl2                5.00000
	MgSO4                4.00000

	                 Relative
	Element             moles
	Cl                  10.00000
	Mg                   9.00000
	O                   16.00000
	S                    4.00000

-------------------------------Phase assemblage--------------------------------

                                                      Moles in assemblage
Phase                  SI log IAP  log KT      Initial       Final       Delta

Bischofite          -1.02    3.43    4.46   0.000e+000           0  0.000e+000
Carnallite           0.00    4.33    4.33   0.000e+000  5.000e+000  5.000e+000
Epsomite             0.00   -1.88   -1.88   0.000e+000  3.584e+000  3.584e+000
Halite               0.00    1.57    1.57   1.000e+001  1.000e+001 -2.814e-009
Kieserite            0.00   -0.12   -0.12   0.000e+000  4.156e-001  4.156e-001
Sylvite              0.00    0.90    0.90   1.000e+001  5.000e+000 -5.000e+000

-----------------------------Solution composition------------------------------

	Elements           Molality       Moles

	Cl               8.470e+000  5.279e-008
	K                5.927e-001  3.694e-009
	Mg               4.461e+000  2.781e-008
	Na               4.675e-001  2.914e-009
	S                7.562e-001  4.713e-009

----------------------------Description of solution----------------------------

                                       pH  =   7.911      Charge balance
                                       pe  =   4.000      Adjusted to redox equilibrium
       Specific Conductance (uS/cm, 25 oC) = 933139
                          Density (g/cm3)  =   1.42552
                        Activity of water  =   0.509
                           Ionic strength  =  1.509e+001
                       Mass of water (kg)  =  6.233e-009
                 Total alkalinity (eq/kg)  =  7.408e-002
                    Total carbon (mol/kg)  =  0.000e+000
                       Total CO2 (mol/kg)  =  0.000e+000
                      Temperature (deg C)  =  25.000
                  Electrical balance (eq)  = -4.618e-010
 Percent error, 100*(Cat-|An|)/(Cat+|An|)  =  -0.37
                               Iterations  = 134
                         Gamma iterations  = 134
                      Osmotic coefficient  =   2.53913
                         Density of water  =   0.99706
                                  Total H  = 6.923866e-007
                                  Total O  = 3.652764e-007

----------------------------Distribution of species----------------------------

                                                           MacInnes   MacInnes
	                               MacInnes    Log       Log         Log 
   Species                 Molality    Activity  Molality  Activity     Gamma

   OH-                   4.117e-005  4.174e-007    -4.385    -6.379    -1.994
   H+                    1.184e-010  1.226e-008    -9.927    -7.911     2.015
   H2O                   5.551e+001  5.094e-001     1.744    -0.293     0.000
Cl              8.470e+000
   Cl-                   8.470e+000  7.495e+000     0.928     0.875    -0.053
K               5.927e-001
   K+                    5.927e-001  1.059e+000    -0.227     0.025     0.252
Mg              4.461e+000
   Mg+2                  4.387e+000  1.000e+003     0.642     3.439     2.796
   MgOH+                 7.404e-002  1.770e-001    -1.131    -0.752     0.379
Na              4.675e-001
   Na+                   4.675e-001  4.957e+000    -0.330     0.695     1.025
S(6)            7.562e-001
   SO4-2                 7.562e-001  5.388e-004    -0.121    -3.269    -3.147
   HSO4-                 3.890e-010  6.293e-010    -9.410    -9.201     0.209

------------------------------Saturation indices-------------------------------

	Phase               SI log IAP  log KT

	Arcanite         -1.44   -3.22   -1.78  K2SO4
	Bischofite       -1.02    3.43    4.46  MgCl2:6H2O
	Bloedite         -0.53   -2.88   -2.35  Na2Mg(SO4)2:4H2O
	Brucite           1.56   -9.32  -10.88  Mg(OH)2
	Carnallite        0.00    4.33    4.33  KMgCl3:6H2O
	Epsomite          0.00   -1.88   -1.88  MgSO4:7H2O
	Glaserite        -1.96   -5.77   -3.80  NaK3(SO4)2
	H2O(g)           -1.80   -0.29    1.51  H2O
	Halite            0.00    1.57    1.57  NaCl
	Hexahydrite       0.05   -1.59   -1.63  MgSO4:6H2O
	Kainite           0.38    0.19   -0.19  KMgClSO4:3H2O
	Kieserite         0.00   -0.12   -0.12  MgSO4:H2O
	Leonhardite      -0.11   -1.00   -0.89  MgSO4:4H2O
	Leonite          -0.24   -4.22   -3.98  K2Mg(SO4)2:4H2O
	Mirabilite       -3.59   -4.81   -1.21  Na2SO4:10H2O
	Misenite        -59.34  -70.15  -10.81  K8H6(SO4)7
	Pentahydrite     -0.01   -1.29   -1.28  MgSO4:5H2O
	Schoenite        -0.48   -4.81   -4.33  K2Mg(SO4)2:6H2O
	Sylvite           0.00    0.90    0.90  KCl

------------------
End of simulation.
------------------

-------------------------------------
Reading input data for simulation 36.
-------------------------------------

	        SOLUTION 1
	        units mol/kgw
	        pH    7
	        temp  25
	        EQUILIBRIUM_PHASES 1
	        Halite       0 10
	        Sylvite      0 10
	        Bischofite   0 0
	        Carnallite   0 0
	        Epsomite     0 0
	        Kieserite    0 0
	        REACTION
	        MgCl2 5
	        MgSO4 5
	END
-------------------------------------------
Beginning of initial solution calculations.
-------------------------------------------

Initial solution 1.	

-----------------------------Solution composition------------------------------

	Elements           Molality       Moles

	Pure water     

----------------------------Description of solution----------------------------

                                       pH  =   7.000    
                                       pe  =   4.000    
       Specific Conductance (uS/cm, 25 oC) = 0
                          Density (g/cm3)  =   0.99705
                        Activity of water  =   1.000
                           Ionic strength  =  1.003e-007
                       Mass of water (kg)  =  1.000e+000
                 Total alkalinity (eq/kg)  =  4.618e-010
                    Total carbon (mol/kg)  =  0.000e+000
                       Total CO2 (mol/kg)  =  0.000e+000
                      Temperature (deg C)  =  25.000
                  Electrical balance (eq)  = -4.618e-010
 Percent error, 100*(Cat-|An|)/(Cat+|An|)  =  -0.23
                               Iterations  =   2
                         Gamma iterations  =   2
                      Osmotic coefficient  =   0.99988
                         Density of water  =   0.99706
                                  Total H  = 1.110124e+002
                                  Total O  = 5.550622e+001

----------------------------Distribution of species----------------------------

                                                           MacInnes   MacInnes
	                               MacInnes    Log       Log         Log 
   Species                 Molality    Activity  Molality  Activity     Gamma

   OH-                   1.005e-007  1.005e-007    -6.998    -6.998    -0.000
   H+                    1.000e-007  1.000e-007    -7.000    -7.000    -0.000
   H2O                   5.551e+001  1.000e+000     1.744    -0.000     0.000

------------------------------Saturation indices-------------------------------

	Phase               SI log IAP  log KT

	H2O(g)           -1.51   -0.00    1.51  H2O

-----------------------------------------
Beginning of batch-reaction calculations.
-----------------------------------------

Reaction step 1.

WARNING: Maximum iterations exceeded, 200

WARNING: Numerical method failed with this set of convergence parameters.

WARNING: Trying smaller step size, pe step size 10, 5 ... 

Using solution 1.	
Using pure phase assemblage 1.	
Using reaction 1.	

Reaction 1.	Irreversible reaction defined in simulation 36.

	 1.000e+000 moles of the following reaction have been added:

	                 Relative
	Reactant            moles

	MgCl2                5.00000
	MgSO4                5.00000

	                 Relative
	Element             moles
	Cl                  10.00000
	Mg                  10.00000
	O                   20.00000
	S                    5.00000

-------------------------------Phase assemblage--------------------------------

                                                      Moles in assemblage
Phase                  SI log IAP  log KT      Initial       Final       Delta

Bischofite          -1.02    3.43    4.46   0.000e+000           0  0.000e+000
Carnallite           0.00    4.33    4.33   0.000e+000  5.000e+000  5.000e+000
Epsomite             0.00   -1.88   -1.88   0.000e+000  3.418e+000  3.418e+000
Halite               0.00    1.57    1.57   1.000e+001  1.000e+001 -2.814e-009
Kieserite            0.00   -0.12   -0.12   0.000e+000  1.582e+000  1.582e+000
Sylvite              0.00    0.90    0.90   1.000e+001  5.000e+000 -5.000e+000

-----------------------------Solution composition------------------------------

	Elements           Molality       Moles

	Cl               8.470e+000  5.279e-008
	K                5.927e-001  3.694e-009
	Mg               4.461e+000  2.780e-008
	Na               4.675e-001  2.914e-009
	S                7.562e-001  4.713e-009

----------------------------Description of solution----------------------------

                                       pH  =   7.911      Charge balance
                                       pe  =   4.000      Adjusted to redox equilibrium
       Specific Conductance (uS/cm, 25 oC) = 933139
                          Density (g/cm3)  =   1.42552
                        Activity of water  =   0.509
                           Ionic strength  =  1.509e+001
                       Mass of water (kg)  =  6.233e-009
                 Total alkalinity (eq/kg)  =  7.408e-002
                    Total carbon (mol/kg)  =  0.000e+000
                       Total CO2 (mol/kg)  =  0.000e+000
                      Temperature (deg C)  =  25.000
                  Electrical balance (eq)  = -4.618e-010
 Percent error, 100*(Cat-|An|)/(Cat+|An|)  =  -0.37
                               Iterations  = 134
                         Gamma iterations  = 134
                      Osmotic coefficient  =   2.53913
                         Density of water  =   0.99706
                                  Total H  = 6.923608e-007
                                  Total O  = 3.652628e-007

----------------------------Distribution of species----------------------------

                                                           MacInnes   MacInnes
	                               MacInnes    Log       Log         Log 
   Species                 Molality    Activity  Molality  Activity     Gamma

   OH-                   4.117e-005  4.174e-007    -4.385    -6.379    -1.994
   H+                    1.184e-010  1.226e-008    -9.927    -7.911     2.015
   H2O                   5.551e+001  5.094e-001     1.744    -0.293     0.000
Cl              8.470e+000
   Cl-                   8.470e+000  7.495e+000     0.928     0.875    -0.053
K               5.927e-001
   K+                    5.927e-001  1.059e+000    -0.227     0.025     0.252
Mg              4.461e+000
   Mg+2                  4.387e+000  1.000e+003     0.642     3.439     2.796
   MgOH+                 7.404e-002  1.770e-001    -1.131    -0.752     0.379
Na              4.675e-001
   Na+                   4.675e-001  4.957e+000    -0.330     0.695     1.025
S(6)            7.562e-001
   SO4-2                 7.562e-001  5.388e-004    -0.121    -3.269    -3.147
   HSO4-                 3.890e-010  6.293e-010    -9.410    -9.201     0.209

------------------------------Saturation indices-------------------------------

	Phase               SI log IAP  log KT

	Arcanite         -1.44   -3.22   -1.78  K2SO4
	Bischofite       -1.02    3.43    4.46  MgCl2:6H2O
	Bloedite         -0.53   -2.88   -2.35  Na2Mg(SO4)2:4H2O
	Brucite           1.56   -9.32  -10.88  Mg(OH)2
	Carnallite        0.00    4.33    4.33  KMgCl3:6H2O
	Epsomite          0.00   -1.88   -1.88  MgSO4:7H2O
	Glaserite        -1.96   -5.77   -3.80  NaK3(SO4)2
	H2O(g)           -1.80   -0.29    1.51  H2O
	Halite            0.00    1.57    1.57  NaCl
	Hexahydrite       0.05   -1.59   -1.63  MgSO4:6H2O
	Kainite           0.38    0.19   -0.19  KMgClSO4:3H2O
	Kieserite         0.00   -0.12   -0.12  MgSO4:H2O
	Leonhardite      -0.11   -1.00   -0.89  MgSO4:4H2O
	Leonite          -0.24   -4.22   -3.98  K2Mg(SO4)2:4H2O
	Mirabilite       -3.59   -4.81   -1.21  Na2SO4:10H2O
	Misenite        -59.34  -70.15  -10.81  K8H6(SO4)7
	Pentahydrite     -0.01   -1.29   -1.28  MgSO4:5H2O
	Schoenite        -0.48   -4.81   -4.33  K2Mg(SO4)2:6H2O
	Sylvite           0.00    0.90    0.90  KCl

------------------
End of simulation.
------------------

-------------------------------------
Reading input data for simulation 37.
-------------------------------------

-----------
End of run.
-----------

