   Input file: mu
  Output file: mu.out
Database file: ../database/phreeqc.dat

------------------
Reading data base.
------------------

	SOLUTION_MASTER_SPECIES
	SOLUTION_SPECIES
	PHASES
	EXCHANGE_MASTER_SPECIES
	EXCHANGE_SPECIES
	SURFACE_MASTER_SPECIES
	SURFACE_SPECIES
	RATES
	END
------------------------------------
Reading input data for simulation 1.
------------------------------------

	DATABASE ../database/phreeqc.dat
	 SOLUTION 2
	  pH  7.0
	  Ca  36.0  Fluorite
	  F   0.5 mg/kgw     # Why does this one (+0.2, -0.1) fail?
	  Cl 10   charge
	END
-------------------------------------------
Beginning of initial solution calculations.
-------------------------------------------

Initial solution 2.	

-----------------------------Solution composition------------------------------

	Elements           Molality       Moles

	Ca               1.831e+000  1.831e+000  Equilibrium with Fluorite
	Cl               3.662e+000  3.662e+000  Charge balance
	F                2.632e-005  2.632e-005

----------------------------Description of solution----------------------------

                                       pH  =   7.000    
                                       pe  =   4.000    
       Specific Conductance (uS/cm, 25 oC) = 252474
                          Density (g/cm3)  =   1.15505
                        Activity of water  =   0.907
                           Ionic strength  =  5.492e+000
                       Mass of water (kg)  =  1.000e+000
                 Total alkalinity (eq/kg)  =  8.064e-007
                    Total carbon (mol/kg)  =  0.000e+000
                       Total CO2 (mol/kg)  =  0.000e+000
                      Temperature (deg C)  =  25.000
                  Electrical balance (eq)  =  7.519e-015
 Percent error, 100*(Cat-|An|)/(Cat+|An|)  =   0.00
                               Iterations  =  20
                                  Total H  = 1.110124e+002
                                  Total O  = 5.550622e+001

----------------------------Distribution of species----------------------------

                                                   Log       Log         Log 
   Species                 Molality    Activity  Molality  Activity     Gamma

   OH-                   1.910e-007  9.076e-008    -6.719    -7.042    -0.323
   H+                    1.415e-007  1.000e-007    -6.849    -7.000    -0.151
   H2O                   5.551e+001  9.066e-001     1.744    -0.043     0.000
Ca              1.831e+000
   Ca+2                  1.831e+000  1.527e+000     0.263     0.184    -0.079
   CaF+                  1.778e-005  5.396e-005    -4.750    -4.268     0.482
   CaOH+                 7.570e-007  2.298e-006    -6.121    -5.639     0.482
Cl              3.662e+000
   Cl-                   3.662e+000  2.103e+000     0.564     0.323    -0.241
F               2.632e-005
   CaF+                  1.778e-005  5.396e-005    -4.750    -4.268     0.482
   F-                    8.539e-006  4.057e-006    -5.069    -5.392    -0.323
   HF                    1.718e-010  6.085e-010    -9.765    -9.216     0.549
   HF2-                  3.120e-015  9.472e-015   -14.506   -14.024     0.482
H(0)            3.997e-026
   H2                    1.999e-026  7.079e-026   -25.699   -25.150     0.549
O(0)            0.000e+000
   O2                    0.000e+000  0.000e+000   -42.714   -42.165     0.549

------------------------------Saturation indices-------------------------------

	Phase               SI log IAP  log KT

	Fluorite          0.00  -10.60  -10.60  CaF2
	H2(g)           -22.00  -25.15   -3.15  H2
	H2O(g)           -1.55   -0.04    1.51  H2O
	O2(g)           -39.27  -42.17   -2.89  O2

------------------
End of simulation.
------------------

------------------------------------
Reading input data for simulation 2.
------------------------------------

	 SOLUTION 2
	  pH  7.0
	  Ca  36.0  Fluorite
	  F   0.3 mg/kgw   # OK
	  Cl 10   charge
	END
-------------------------------------------
Beginning of initial solution calculations.
-------------------------------------------

Initial solution 2.	

-----------------------------Solution composition------------------------------

	Elements           Molality       Moles

	Ca               3.147e+000  3.147e+000  Equilibrium with Fluorite
	Cl               6.293e+000  6.293e+000  Charge balance
	F                1.579e-005  1.579e-005

----------------------------Description of solution----------------------------

                                       pH  =   7.000    
                                       pe  =   4.000    
       Specific Conductance (uS/cm, 25 oC) = 488351
                          Density (g/cm3)  =   1.27163
                        Activity of water  =   0.840
                           Ionic strength  =  9.440e+000
                       Mass of water (kg)  =  1.000e+000
                 Total alkalinity (eq/kg)  =  1.319e-006
                    Total carbon (mol/kg)  =  0.000e+000
                       Total CO2 (mol/kg)  =  0.000e+000
                      Temperature (deg C)  =  25.000
                  Electrical balance (eq)  = -5.256e-012
 Percent error, 100*(Cat-|An|)/(Cat+|An|)  =  -0.00
                               Iterations  =  24
                                  Total H  = 1.110124e+002
                                  Total O  = 5.550622e+001

----------------------------Distribution of species----------------------------

                                                   Log       Log         Log 
   Species                 Molality    Activity  Molality  Activity     Gamma

   OH-                   1.862e-007  8.404e-008    -6.730    -7.075    -0.345
   H+                    1.430e-007  1.000e-007    -6.845    -7.000    -0.155
   H2O                   5.551e+001  8.395e-001     1.744    -0.076     0.000
Ca              3.147e+000
   Ca+2                  3.147e+000  1.047e+001     0.498     1.020     0.522
   CaF+                  1.236e-005  1.413e-004    -4.908    -3.850     1.058
   CaOH+                 1.276e-006  1.458e-005    -5.894    -4.836     1.058
Cl              6.293e+000
   Cl-                   6.293e+000  3.936e+000     0.799     0.595    -0.204
F               1.579e-005
   CaF+                  1.236e-005  1.413e-004    -4.908    -3.850     1.058
   F-                    3.433e-006  1.550e-006    -5.464    -5.810    -0.345
   HF                    2.644e-011  2.324e-010   -10.578    -9.634     0.944
   HF2-                  1.209e-016  1.382e-015   -15.918   -14.859     1.058
H(0)            1.611e-026
   H2                    8.054e-027  7.079e-026   -26.094   -25.150     0.944
O(0)            0.000e+000
   O2                    0.000e+000  0.000e+000   -43.176   -42.232     0.944

------------------------------Saturation indices-------------------------------

	Phase               SI log IAP  log KT

	Fluorite          0.00  -10.60  -10.60  CaF2
	H2(g)           -22.00  -25.15   -3.15  H2
	H2O(g)           -1.59   -0.08    1.51  H2O
	O2(g)           -39.34  -42.23   -2.89  O2

------------------
End of simulation.
------------------

------------------------------------
Reading input data for simulation 3.
------------------------------------

	 SOLUTION 2
	  pH  7.0
	  Ca  36.0  Fluorite
	  F   0.8  mg/kgw   # OK
	  Cl 10   charge
	END
-------------------------------------------
Beginning of initial solution calculations.
-------------------------------------------

Initial solution 2.	

-----------------------------Solution composition------------------------------

	Elements           Molality       Moles

	Ca               5.509e-001  5.509e-001  Equilibrium with Fluorite
	Cl               1.102e+000  1.102e+000  Charge balance
	F                4.211e-005  4.211e-005

----------------------------Description of solution----------------------------

                                       pH  =   7.000    
                                       pe  =   4.000    
       Specific Conductance (uS/cm, 25 oC) = 69599
                          Density (g/cm3)  =   1.04537
                        Activity of water  =   0.972
                           Ionic strength  =  1.653e+000
                       Mass of water (kg)  =  1.000e+000
                 Total alkalinity (eq/kg)  =  2.996e-007
                    Total carbon (mol/kg)  =  0.000e+000
                       Total CO2 (mol/kg)  =  0.000e+000
                      Temperature (deg C)  =  25.000
                  Electrical balance (eq)  = -3.401e-010
 Percent error, 100*(Cat-|An|)/(Cat+|An|)  =  -0.00
                               Iterations  =  13
                                  Total H  = 1.110124e+002
                                  Total O  = 5.550622e+001

----------------------------Distribution of species----------------------------

                                                   Log       Log         Log 
   Species                 Molality    Activity  Molality  Activity     Gamma

   OH-                   1.788e-007  9.730e-008    -6.748    -7.012    -0.264
   H+                    1.369e-007  1.000e-007    -6.864    -7.000    -0.136
   H2O                   5.551e+001  9.719e-001     1.744    -0.012     0.000
Ca              5.509e-001
   Ca+2                  5.509e-001  1.485e-001    -0.259    -0.828    -0.569
   CaF+                  1.820e-005  1.683e-005    -4.740    -4.774    -0.034
   CaOH+                 2.590e-007  2.395e-007    -6.587    -6.621    -0.034
Cl              1.102e+000
   Cl-                   1.102e+000  6.347e-001     0.042    -0.197    -0.240
F               4.211e-005
   F-                    2.391e-005  1.301e-005    -4.621    -4.886    -0.264
   CaF+                  1.820e-005  1.683e-005    -4.740    -4.774    -0.034
   HF                    1.334e-009  1.951e-009    -8.875    -8.710     0.165
   HF2-                  1.053e-013  9.741e-014   -12.977   -13.011    -0.034
H(0)            9.677e-026
   H2                    4.839e-026  7.079e-026   -25.315   -25.150     0.165
O(0)            0.000e+000
   O2                    0.000e+000  0.000e+000   -42.270   -42.105     0.165

------------------------------Saturation indices-------------------------------

	Phase               SI log IAP  log KT

	Fluorite          0.00  -10.60  -10.60  CaF2
	H2(g)           -22.00  -25.15   -3.15  H2
	H2O(g)           -1.52   -0.01    1.51  H2O
	O2(g)           -39.21  -42.10   -2.89  O2

------------------
End of simulation.
------------------

------------------------------------
Reading input data for simulation 4.
------------------------------------

	 SOLUTION 2
	  pH  7.0
	  Ca  36.0  Fluorite
	  F   0.5 mg/kgw     # Why does this one (+0.2, -0.1) fail?
	  Cl 10  # charge
	END
-------------------------------------------
Beginning of initial solution calculations.
-------------------------------------------

Initial solution 2.	

-----------------------------Solution composition------------------------------

	Elements           Molality       Moles

	Ca               3.132e+000  3.132e+000  Equilibrium with Fluorite
	Cl               1.000e-002  1.000e-002
	F                2.632e-005  2.632e-005

----------------------------Description of solution----------------------------

                                       pH  =   7.000    
                                       pe  =   4.000    
       Specific Conductance (uS/cm, 25 oC) = 373355
                          Density (g/cm3)  =   1.14657
                        Activity of water  =   0.947
                           Ionic strength  =  6.270e+000
                       Mass of water (kg)  =  1.000e+000
                 Total alkalinity (eq/kg)  =  1.423e-006
                    Total carbon (mol/kg)  =  0.000e+000
                       Total CO2 (mol/kg)  =  0.000e+000
                      Temperature (deg C)  =  25.000
                  Electrical balance (eq)  =  6.255e+000
 Percent error, 100*(Cat-|An|)/(Cat+|An|)  =  99.68
                               Iterations  =  14
                                  Total H  = 1.110124e+002
                                  Total O  = 5.550622e+001

----------------------------Distribution of species----------------------------

                                                   Log       Log         Log 
   Species                 Molality    Activity  Molality  Activity     Gamma

   OH-                   2.021e-007  9.476e-008    -6.694    -7.023    -0.329
   H+                    1.419e-007  1.000e-007    -6.848    -7.000    -0.152
   H2O                   5.551e+001  9.466e-001     1.744    -0.024     0.000
Ca              3.132e+000
   Ca+2                  3.132e+000  3.405e+000     0.496     0.532     0.036
   CaF+                  2.052e-005  8.058e-005    -4.688    -4.094     0.594
   CaOH+                 1.362e-006  5.349e-006    -5.866    -5.272     0.594
Cl              1.000e-002
   Cl-                   1.000e-002  5.823e-003    -2.000    -2.235    -0.235
F               2.632e-005
   CaF+                  2.052e-005  8.058e-005    -4.688    -4.094     0.594
   F-                    5.794e-006  2.717e-006    -5.237    -5.566    -0.329
   HF                    9.619e-011  4.075e-010   -10.017    -9.390     0.627
   HF2-                  1.082e-015  4.248e-015   -14.966   -14.372     0.594
H(0)            3.343e-026
   H2                    1.671e-026  7.079e-026   -25.777   -25.150     0.627
O(0)            0.000e+000
   O2                    0.000e+000  0.000e+000   -42.755   -42.128     0.627

------------------------------Saturation indices-------------------------------

	Phase               SI log IAP  log KT

	Fluorite          0.00  -10.60  -10.60  CaF2
	H2(g)           -22.00  -25.15   -3.15  H2
	H2O(g)           -1.53   -0.02    1.51  H2O
	O2(g)           -39.24  -42.13   -2.89  O2

------------------
End of simulation.
------------------

------------------------------------
Reading input data for simulation 5.
------------------------------------

	 SOLUTION 2
	  pH  7.0
	  Ca  36.0  Fluorite
	  F   0.3 mg/kgw   # OK
	  Cl 10   # charge
	END
-------------------------------------------
Beginning of initial solution calculations.
-------------------------------------------

Initial solution 2.	

-----------------------------Solution composition------------------------------

	Elements           Molality       Moles

	Ca               5.218e+000  5.218e+000  Equilibrium with Fluorite
	Cl               1.000e-002  1.000e-002
	F                1.579e-005  1.579e-005

----------------------------Description of solution----------------------------

                                       pH  =   7.000    
                                       pe  =   4.000    
       Specific Conductance (uS/cm, 25 oC) = 621875
                          Density (g/cm3)  =   1.22465
                        Activity of water  =   0.911
                           Ionic strength  =  1.044e+001
                       Mass of water (kg)  =  1.000e+000
                 Total alkalinity (eq/kg)  =  2.401e-006
                    Total carbon (mol/kg)  =  0.000e+000
                       Total CO2 (mol/kg)  =  0.000e+000
                      Temperature (deg C)  =  25.000
                  Electrical balance (eq)  =  1.043e+001
 Percent error, 100*(Cat-|An|)/(Cat+|An|)  =  99.81
                               Iterations  =  15
                                  Total H  = 1.110124e+002
                                  Total O  = 5.550622e+001

----------------------------Distribution of species----------------------------

                                                   Log       Log         Log 
   Species                 Molality    Activity  Molality  Activity     Gamma

   OH-                   2.038e-007  9.121e-008    -6.691    -7.040    -0.349
   H+                    1.432e-007  1.000e-007    -6.844    -7.000    -0.156
   H2O                   5.551e+001  9.111e-001     1.744    -0.040     0.000
Ca              5.218e+000
   Ca+2                  5.218e+000  2.490e+001     0.718     1.396     0.679
   CaF+                  1.355e-005  2.179e-004    -4.868    -3.662     1.206
   CaOH+                 2.341e-006  3.766e-005    -5.631    -4.424     1.206
Cl              1.000e-002
   Cl-                   1.000e-002  6.419e-003    -2.000    -2.193    -0.193
F               1.579e-005
   CaF+                  1.355e-005  2.179e-004    -4.868    -3.662     1.206
   F-                    2.245e-006  1.005e-006    -5.649    -5.998    -0.349
   HF                    1.361e-011  1.507e-010   -10.866    -9.822     1.044
   HF2-                  3.610e-017  5.808e-016   -16.442   -15.236     1.206
H(0)            1.279e-026
   H2                    6.394e-027  7.079e-026   -26.194   -25.150     1.044
O(0)            0.000e+000
   O2                    0.000e+000  0.000e+000   -43.205   -42.161     1.044

------------------------------Saturation indices-------------------------------

	Phase               SI log IAP  log KT

	Fluorite          0.00  -10.60  -10.60  CaF2
	H2(g)           -22.00  -25.15   -3.15  H2
	H2O(g)           -1.55   -0.04    1.51  H2O
	O2(g)           -39.27  -42.16   -2.89  O2

------------------
End of simulation.
------------------

------------------------------------
Reading input data for simulation 6.
------------------------------------

	 SOLUTION 2
	  pH  7.0
	  Ca  36.0  Fluorite
	  F   0.8  mg/kgw   # OK
	  Cl 10   # charge
	END
-------------------------------------------
Beginning of initial solution calculations.
-------------------------------------------

Initial solution 2.	

-----------------------------Solution composition------------------------------

	Elements           Molality       Moles

	Ca               7.787e-001  7.787e-001  Equilibrium with Fluorite
	Cl               1.000e-002  1.000e-002
	F                4.211e-005  4.211e-005

----------------------------Description of solution----------------------------

                                       pH  =   7.000    
                                       pe  =   4.000    
       Specific Conductance (uS/cm, 25 oC) = 40847
                          Density (g/cm3)  =   1.03862
                        Activity of water  =   0.987
                           Ionic strength  =  1.562e+000
                       Mass of water (kg)  =  1.000e+000
                 Total alkalinity (eq/kg)  =  4.167e-007
                    Total carbon (mol/kg)  =  0.000e+000
                       Total CO2 (mol/kg)  =  0.000e+000
                      Temperature (deg C)  =  25.000
                  Electrical balance (eq)  =  1.547e+000
 Percent error, 100*(Cat-|An|)/(Cat+|An|)  =  98.72
                               Iterations  =  11
                                  Total H  = 1.110124e+002
                                  Total O  = 5.550622e+001

----------------------------Distribution of species----------------------------

                                                   Log       Log         Log 
   Species                 Molality    Activity  Molality  Activity     Gamma

   OH-                   1.803e-007  9.877e-008    -6.744    -7.005    -0.261
   H+                    1.367e-007  1.000e-007    -6.864    -7.000    -0.136
   H2O                   5.551e+001  9.866e-001     1.744    -0.006     0.000
Ca              7.787e-001
   Ca+2                  7.787e-001  2.064e-001    -0.109    -0.685    -0.577
   CaF+                  2.197e-005  1.984e-005    -4.658    -4.702    -0.044
   CaOH+                 3.742e-007  3.380e-007    -6.427    -6.471    -0.044
Cl              1.000e-002
   Cl-                   1.000e-002  5.783e-003    -2.000    -2.238    -0.238
F               4.211e-005
   CaF+                  2.197e-005  1.984e-005    -4.658    -4.702    -0.044
   F-                    2.014e-005  1.103e-005    -4.696    -4.957    -0.261
   HF                    1.155e-009  1.655e-009    -8.937    -8.781     0.156
   HF2-                  7.758e-014  7.007e-014   -13.110   -13.154    -0.044
H(0)            9.881e-026
   H2                    4.940e-026  7.079e-026   -25.306   -25.150     0.156
O(0)            0.000e+000
   O2                    0.000e+000  0.000e+000   -42.248   -42.092     0.156

------------------------------Saturation indices-------------------------------

	Phase               SI log IAP  log KT

	Fluorite          0.00  -10.60  -10.60  CaF2
	H2(g)           -22.00  -25.15   -3.15  H2
	H2O(g)           -1.52   -0.01    1.51  H2O
	O2(g)           -39.20  -42.09   -2.89  O2

------------------
End of simulation.
------------------

------------------------------------
Reading input data for simulation 7.
------------------------------------

-----------
End of run.
-----------

