   Input file: netpathxl
  Output file: netpathxl.out
Database file: phreeqc.dat

------------------
Reading data base.
------------------

	SOLUTION_MASTER_SPECIES
	SOLUTION_SPECIES
	PHASES
	EXCHANGE_MASTER_SPECIES
	EXCHANGE_SPECIES
	SURFACE_MASTER_SPECIES
	SURFACE_SPECIES
	RATES
	END
------------------------------------
Reading input data for simulation 1.
------------------------------------

	SOLUTION_SPREAD
	 Number	                                     Description	 Units	 Redox	   Temp	    pH	 pe	       Ca	       Mg	        Na	       K	        Cl	   S(6)	   Alkalinity	         C(4)	    Fe	    Mn	    Al	     F	      Si	      Br	     I	     Ba	    Li	      Sr	   N(5)	  N(-3)	    P	 O(0)	 S(-2)	 N(0)	  C(-4)	     13C	     14C	 34S(6)	 34S(-2)	      2H	 3H	    18O	 87Sr	 15N(0)	 15N(5)	 15N(-3)	 15N(3)	 Density
	      	                                                	      	      	       	      	   	    as Ca	    as Mg	     as Na	    as K	     as Cl	 as SO4	 gfw 50.04289	 gfw 50.04289	 as Fe	 as Mn	 as Al	  as F	 as SiO2	   as Br	  as I	  as Ba	 as Li	   as Sr	   as N	   as N	 as P	 as O	  as S	 as N	 as CH4	        	        	       	        	        	   	       	     	       	       	        	       	        
	      1	       02S-01E-22 ABB 1   Chapman Line Camp well	  mg/l	    pe	 18.700	 6.860	   	  114.700	    8.109	    12.030	   0.922	     2.787	 19.007	      298.000	             	      	      	      	 0.200	        	   0.040	 0.002	  0.071	 0.005	   0.287	  1.053	  0.040	     	     	      	     	       	  -9.510	  95.850	       	        	 -29.500	   	 -4.940	     	       	       	        	       	        
	      2	                                01S-04E-03 ACA 1	  mg/l	    pe	 18.400	 6.900	   	   95.790	   49.580	    20.390	   1.674	    28.327	 31.544	      348.000	             	      	      	      	 0.200	        	   0.140	 0.003	  0.099	 0.001	   0.067	 14.409	  0.040	     	     	      	     	       	        	        	       	        	 -29.700	   	 -5.260	     	       	       	        	       	        
	      3	                                01S-05E-27 AAB 1	  mg/l	    pe	 18.300	 6.910	   	   80.810	   39.610	     4.934	   0.792	     8.370	 10.783	      329.000	             	      	      	      	 0.100	        	   0.080	 0.001	  0.213	 0.001	   0.065	  4.152	  0.040	     	     	      	     	       	        	        	       	        	 -29.000	   	 -4.930	     	       	       	        	       	        
	      4	       01S-06E-22 BCC 1        Washington Spring	  mg/l	    pe	 17.500	 7.100	   	   73.210	   38.930	     2.170	   1.199	     2.266	  4.905	      341.000	             	      	      	      	 0.200	        	   0.200	 0.001	  0.047	 0.001	   0.054	  0.763	  0.040	     	     	      	     	       	        	        	       	        	 -29.900	   	 -5.070	     	       	       	        	       	        
	      5	                                01S-06E-26 ADD 1	  mg/l	    pe	 18.400	 6.700	   	  103.600	   55.090	     8.656	   1.585	     9.819	 17.069	      443.000	             	      	      	      	 0.100	        	   0.090	 0.003	  0.064	 0.001	   0.068	  2.234	  0.040	     	     	      	     	       	        	        	       	        	 -30.600	   	 -5.210	     	       	       	        	       	        
	      6	                     01S-07E-23 BCC 1  Wood well	  mg/l	    pe	 18.400	 7.200	   	   84.790	   38.670	   141.100	   9.523	   279.139	 39.943	      258.000	             	      	      	      	 0.700	        	   0.960	 0.034	  0.079	 0.038	   2.480	      0	  0.304	     	     	      	     	       	  -8.440	   0.670	       	        	 -31.600	   	 -5.570	     	       	       	        	       	        
	      7	  02S-05E-08 ABB 1  Johnston County RWD 3 Well 1	  mg/l	    pe	 16.100	 6.970	   	   79.940	   34.500	     3.817	   0.845	     3.265	 11.735	      328.000	             	      	      	      	 0.200	        	   0.050	 0.004	  0.045	 0.001	   0.083	  0.599	  0.040	     	     	      	     	       	 -12.790	  99.800	       	        	 -27.700	   	 -5.050	     	       	       	        	       	        
	      8	                                02S-06E-11 DBC 1	  mg/l	    pe	 18.500	 7.050	   	   74.840	   39.070	     3.619	   2.517	     6.686	  9.128	      328.000	             	      	      	      	 0.100	        	   0.070	 0.003	  0.046	 0.000	   0.042	  5.472	  0.040	     	     	      	     	       	        	        	       	        	 -30.200	   	 -5.260	     	       	       	        	       	        
	      9	          02S-06E-18 CAA 1        Unnamed Spring	  mg/l	    pe	 17.400	 7.020	   	   76.650	   42.270	     2.146	   0.811	     2.432	  5.760	      358.000	             	      	      	      	 0.100	        	   0.120	 0.001	  0.044	 0.001	   0.063	  0.712	  0.040	     	     	      	     	       	        	        	       	        	 -29.400	   	 -5.200	     	       	       	        	       	        
	     10	                                02S-07E-05 CBA 1	  mg/l	    pe	 18.100	 7.200	   	   71.080	   31.440	     7.321	   1.419	     5.175	 16.605	      297.000	             	      	      	      	 0.200	        	   0.140	 0.003	  0.062	 0.005	   0.113	  0.066	  0.040	     	     	      	     	       	        	        	       	        	 -28.200	   	 -5.240	     	       	       	        	       	        
	     11	                                02S-07E-17 BCB 1	  mg/l	    pe	 19.500	 6.800	   	   78.080	   38.360	     1.612	   0.380	     1.815	  6.454	      338.000	             	      	      	      	 0.100	        	   0.050	 0.002	  0.036	 0.001	   0.062	  0.591	  0.040	     	     	      	     	       	        	        	       	        	 -29.200	   	 -5.080	     	       	       	        	       	        
	     12	                                03S-04E-04 BCD 1	  mg/l	    pe	 19.500	 6.880	   	  100.100	   22.960	     1.726	   0.470	     1.416	  5.523	      323.000	             	      	      	      	 0.200	        	   0.020	 0.002	  0.059	 0.002	   0.165	  0.417	  0.040	     	     	      	     	       	        	        	       	        	 -25.500	   	 -4.670	     	       	       	        	       	        
	     13	                                01S-01E-21 CDD 1	  mg/l	    pe	 19.800	 6.740	   	   96.500	   24.810	     1.630	   0.822	     1.715	  7.147	      326.000	             	      	      	      	 0.100	        	   0.040	 0.001	  0.045	 0.001	   0.078	  0.470	  0.040	     	     	      	     	       	        	        	       	        	 -33.500	   	 -5.640	     	       	       	        	       	        
	     14	 01S-03E-01 ABB 1 Antelope Spring at Sulphur, OK	  mg/l	    pe	 17.800	 7.090	   	   79.140	   35.390	     3.370	   1.483	     3.351	 16.875	      315.000	             	      	      	      	 0.100	        	   0.040	 0.004	  0.171	 0.001	   0.084	  0.170	  0.040	     	     	      	     	       	  -7.200	  66.250	       	        	 -28.800	   	 -5.060	     	       	       	        	       	        
	     15	            01S-03E-03 ABA 1        Vendome Well	  mg/l	    pe	 19.600	 7.140	   	   86.590	   37.370	   315.500	   9.598	   558.363	 35.141	      278.000	             	      	      	      	 0.700	        	   2.080	 0.062	  0.202	 0.066	   6.860	      0	  0.426	     	     	      	     	       	  -8.210	  11.970	       	        	 -31.200	   	 -5.400	     	       	       	        	       	        
	     16	                                01S-03E-24 BAA 1	  mg/l	    pe	 18.200	 6.930	   	   85.830	   47.630	    11.030	   2.106	    14.989	 35.329	      365.000	             	      	      	      	 0.200	        	   0.180	 0.003	  0.051	 0.003	   0.123	  1.144	  0.040	     	     	      	     	       	        	 100.000	       	        	 -27.600	   	 -4.560	     	       	       	        	       	        
	     17	                                01S-04E-05 DAD 1	  mg/l	    pe	 19.100	 6.700	   	  100.000	   30.000	     8.330	   0.956	     4.101	  9.492	      348.000	             	      	      	      	 0.100	        	   0.050	 0.002	  0.240	 0.001	   0.068	 14.409	  0.040	     	     	      	     	       	        	        	       	        	 -29.900	   	 -5.410	     	       	       	        	       	        
	     18	                                01S-04E-09 CCB 1	  mg/l	    pe	 18.300	 6.730	   	  133.000	   16.080	    13.190	  12.820	    17.229	 49.186	      333.000	             	      	      	      	 0.200	        	   0.120	 0.002	  0.079	 0.001	   0.176	  5.322	  0.040	     	     	      	     	       	        	        	       	        	 -30.500	   	 -5.350	     	       	       	        	       	        
	     19	                                02S-01E-02 CBA 1	  mg/l	    pe	 17.900	 6.750	   	  134.000	    4.975	     1.810	   0.525	     1.605	  8.459	      325.000	             	      	      	      	 0.100	        	   0.050	 0.001	  0.088	 0.002	   0.441	  0.172	  0.040	     	     	      	     	       	        	        	       	        	 -30.400	   	 -5.280	     	       	       	        	       	        
	     20	                                02S-01W-03 CCD 1	  mg/l	    pe	 18.000	 6.820	   	  121.200	    7.308	     1.495	   0.463	     1.220	 14.924	      319.000	             	      	      	      	 0.200	        	   0.200	 0.001	  0.095	 0.004	   1.350	  0.162	  0.040	     	     	      	     	       	        	        	       	        	 -30.600	   	 -5.340	     	       	       	        	       	        
	     21	                                02S-02E-18 BDB 1	  mg/l	    pe	 18.600	 6.950	   	  120.900	    6.960	     3.056	   0.912	     3.324	  6.580	      308.000	             	      	      	      	 0.200	        	   0.040	 0.001	  0.083	 0.002	   0.163	  0.044	  0.040	     	     	      	     	       	        	        	       	        	 -35.600	   	 -5.830	     	       	       	        	       	        
	     22	                                02S-03E-10 CDD 1	  mg/l	    pe	 18.600	 7.100	   	   77.540	    3.128	     3.149	   0.368	     2.945	 12.290	      179.000	             	      	      	      	 0.100	        	   0.070	 0.001	  0.035	 0.001	   0.069	  1.258	  0.040	     	     	      	     	       	        	        	       	        	 -27.800	   	 -4.970	     	       	       	        	       	        
	     23	                                02S-04E-09 DAB 1	  mg/l	    pe	 20.600	 6.780	   	   79.680	   33.060	     3.877	  11.440	     5.652	  7.458	      303.000	             	      	      	      	 0.100	        	   0.030	 0.005	  0.047	 0.001	   0.156	  7.597	  0.040	     	     	      	     	       	        	        	       	        	 -24.000	   	 -4.230	     	       	       	        	       	        
	     24	                                02S-04E-28 DCB 1	  mg/l	    pe	 18.900	 6.990	   	   70.420	   33.170	     4.093	   1.104	     6.257	  8.218	      283.000	             	      	      	      	 0.100	        	   0.050	 0.001	  0.051	 0.001	   0.111	  2.611	  0.040	     	     	      	     	       	        	        	       	        	 -27.900	   	 -4.890	     	       	       	        	       	        
	     25	                                01N-05E-22 CBB 1	  mg/l	    pe	 16.700	 6.990	   	   63.220	   26.320	     1.965	   3.516	     2.283	 10.682	      256.000	             	      	      	      	 0.100	        	        	 0.002	  0.057	 0.000	   0.043	  1.197	  0.040	     	     	      	     	       	        	        	       	        	 -35.200	   	 -6.390	     	       	       	        	       	        
	     26	                                01N-06E-07 CDC 1	  mg/l	    pe	 19.100	 7.050	   	   67.600	   35.190	     1.183	   0.783	     1.855	  5.471	      288.000	             	      	      	      	 0.100	        	   0.050	 0.002	  0.038	 0.001	   0.023	  2.594	  0.040	     	     	      	     	       	        	        	       	        	 -28.700	   	 -5.140	     	       	       	        	       	        
	     27	                                01N-07E-30 DBB 1	  mg/l	    pe	 18.800	 6.750	   	  108.500	   19.290	     3.381	   0.577	     2.714	 11.481	      333.000	             	      	      	      	 0.100	        	   0.030	 0.001	  0.060	 0.001	   0.076	  2.611	  0.040	     	     	      	     	       	        	        	       	        	 -32.400	   	 -5.340	     	       	       	        	       	        
	     28	                                02N-05E-17 BDD 1	  mg/l	    pe	 18.400	 6.950	   	   76.890	   35.410	     5.811	   2.030	    13.396	 15.180	      296.000	             	      	      	      	 0.200	        	   0.070	 0.002	  0.088	 0.001	   0.072	  1.227	  0.040	     	     	      	     	       	        	        	       	        	 -31.300	   	 -5.430	     	       	       	        	       	        
	     29	                                02N-06E-32 CBC 1	  mg/l	    pe	 17.700	 6.700	   	  118.200	   77.480	     7.970	   2.473	    10.752	 50.573	      546.000	             	      	      	      	 0.200	        	   0.280	 0.007	  0.119	 0.001	   0.086	  2.948	  0.040	     	     	      	     	       	        	        	       	        	 -33.600	   	 -5.730	     	       	       	        	       	        
	     30	              02N-06E-34 CCD 1 Byrds Mill Spring	  mg/l	    pe	 18.200	 7.100	   	   73.100	   36.600	     4.200	   1.510	     3.930	  8.200	      330.000	             	      	      	      	 0.100	        	        	 0.002	  0.051	 0.002	   0.161	  0.880	  0.040	     	     	      	     	       	  -7.970	  72.760	       	        	 -29.700	   	 -5.140	     	       	       	        	       	        
	     31	                 01S-02E-01 DCB 1 Harrison, Nace	  mg/l	    pe	 33.100	 6.500	   	 3600.000	 1220.000	 27300.000	 280.000	 54400.000	 18.000	      172.000	             	      	      	      	 0.500	        	 209.000	 5.940	 29.800	 4.490	 206.000	      0	 36.600	     	     	      	     	       	   8.780	   3.810	       	        	 -17.600	   	 -1.540	     	       	       	        	       	        
	SOLUTION_SPREAD
	 Number	   Description	    Units	 Redox	   Temp	     pH	    pe	  Ca	   Mg	   Na	    K	   Cl	 S(6)	 Alkalinity	 C(4)	    Fe	    Mn	    Al	     F	    Si	    Br	     I	    Ba	    Li	    Sr	 xNO3-	 xNH4+	     P	  O(0)	 S(-2)	  N(0)	 C(-4)	    13C	     14C	 34S(6)	 34S(-2)	    2H	    3H	   18O	 87Sr	 15N(0)	 15N(5)	 15N(-3)	 15N(3)	 Density
	      	              	         	      	       	 charge	      	    	     	     	     	     	     	           	     	      	      	      	      	      	      	      	      	      	      	      	      	      	      	      	      	      	       	        	       	        	      	      	      	     	       	       	        	       	        
	     32	 Precipitation	 mmol/kgw	    pe	 17.000	    4.8	 0.000	 0.1	 0.02	 0.06	 0.01	 0.07	  .13	           	    0	 0.000	 0.000	 0.000	 0.000	 0.000	 0.000	 0.000	 0.000	 0.000	 0.000	   .17	   .15	 0.000	 0.000	 0.000	 0.000	 0.000	 -7.000	 100.000	  0.000	   0.000	 0.000	 0.000	 0.000	     	       	       	        	       	        
	SOLUTION_MASTER_SPECIES
	I	 I-		0.0	I		126.9045
	SOLUTION_SPECIES
	I- =  I- 
		log_k 0
		delta_h	0	kJ/mol	# Calculated enthalpy of reaction	I-
	EXCHANGE_SPECIES
		0.5Ca+2 + 0.5Mg+2 + 2X- = Ca0.5Mg0.5X2
		log_k 0
		0.75Ca+2 + 0.25Mg+2 + 2X- = Ca0.75Mg0.25X2
		log_k 0
	PHASES
		CH2O
		CH2O = 0.5CH4 + 0.5CO2
		log_k 0
		CH2O(NH3).1
		CH2O(NH3).1 = 0.5CH4 + 0.5CO2 + 0.1NH3
		log_k 0
		NaBr
		NaBr = Na+ + Br-
		log_k 0
	END
-------------------------------------------
Beginning of initial solution calculations.
-------------------------------------------

Initial solution 1.	 02S-01E-22 ABB 1   Chapman Line Camp well 

-----------------------------Solution composition------------------------------

	Elements           Molality       Moles

	Alkalinity       5.958e-003  5.958e-003
	Ba               5.172e-007  5.172e-007
	Br               5.008e-007  5.008e-007
	Ca               2.863e-003  2.863e-003
	Cl               7.865e-005  7.865e-005
	F                1.053e-005  1.053e-005
	I                1.577e-008  1.577e-008
	K                2.359e-005  2.359e-005
	Li               7.209e-007  7.209e-007
	Mg               3.337e-004  3.337e-004
	N(-3)            2.857e-006  2.857e-006
	N(5)             7.521e-005  7.521e-005
	Na               5.235e-004  5.235e-004
	S(6)             1.979e-004  1.979e-004
	Sr               3.277e-006  3.277e-006

----------------------------Description of solution----------------------------

                                       pH  =   6.860    
                                       pe  =   4.000    
       Specific Conductance (uS/cm, 25 oC) = 607
                          Density (g/cm3)  =   0.99890
                        Activity of water  =   1.000
                           Ionic strength  =  9.685e-003
                       Mass of water (kg)  =  1.000e+000
                    Total carbon (mol/kg)  =  7.736e-003
                       Total CO2 (mol/kg)  =  7.736e-003
                      Temperature (deg C)  =  18.700
                  Electrical balance (eq)  =  4.334e-004
 Percent error, 100*(Cat-|An|)/(Cat+|An|)  =   3.33
                               Iterations  =   9
                                  Total H  = 1.110184e+002
                                  Total O  = 5.552866e+001

---------------------------------Redox couples---------------------------------

	Redox couple             pe  Eh (volts)

	N(-3)/N(5)           6.8574      0.3971

----------------------------Distribution of species----------------------------

                                                   Log       Log         Log 
   Species                 Molality    Activity  Molality  Activity     Gamma

   H+                    1.508e-007  1.380e-007    -6.822    -6.860    -0.038
   OH-                   4.909e-008  4.430e-008    -7.309    -7.354    -0.045
   H2O                   5.551e+001  9.998e-001     1.744    -0.000     0.000
Ba              5.172e-007
   Ba+2                  4.847e-007  3.270e-007    -6.315    -6.485    -0.171
   BaSO4                 1.729e-008  1.733e-008    -7.762    -7.761     0.001
   BaHCO3+               1.498e-008  1.354e-008    -7.825    -7.868    -0.044
   BaCO3                 2.316e-010  2.322e-010    -9.635    -9.634     0.001
   BaOH+                 8.875e-014  8.026e-014   -13.052   -13.096    -0.044
Br              5.008e-007
   Br-                   5.008e-007  4.513e-007    -6.300    -6.346    -0.045
C(4)            7.736e-003
   HCO3-                 5.807e-003  5.268e-003    -2.236    -2.278    -0.042
   CO2                   1.785e-003  1.789e-003    -2.748    -2.747     0.001
   CaHCO3+               1.214e-004  1.101e-004    -3.916    -3.958    -0.042
   MgHCO3+               1.426e-005  1.290e-005    -4.846    -4.889    -0.044
   CaCO3                 4.277e-006  4.287e-006    -5.369    -5.368     0.001
   CO3-2                 2.301e-006  1.559e-006    -5.638    -5.807    -0.169
   NaHCO3                1.396e-006  1.400e-006    -5.855    -5.854     0.001
   MgCO3                 2.888e-007  2.895e-007    -6.539    -6.538     0.001
   SrHCO3+               1.499e-007  1.360e-007    -6.824    -6.867    -0.042
   BaHCO3+               1.498e-008  1.354e-008    -7.825    -7.868    -0.044
   NaCO3-                1.097e-008  9.916e-009    -7.960    -8.004    -0.044
   SrCO3                 1.726e-009  1.730e-009    -8.763    -8.762     0.001
   BaCO3                 2.316e-010  2.322e-010    -9.635    -9.634     0.001
Ca              2.863e-003
   Ca+2                  2.701e-003  1.829e-003    -2.568    -2.738    -0.169
   CaHCO3+               1.214e-004  1.101e-004    -3.916    -3.958    -0.042
   CaSO4                 3.626e-005  3.634e-005    -4.441    -4.440     0.001
   CaCO3                 4.277e-006  4.287e-006    -5.369    -5.368     0.001
   CaF+                  1.404e-007  1.269e-007    -6.853    -6.896    -0.044
   CaOH+                 2.431e-009  2.199e-009    -8.614    -8.658    -0.044
   CaHSO4+               3.019e-011  2.730e-011   -10.520   -10.564    -0.044
Cl              7.865e-005
   Cl-                   7.865e-005  7.100e-005    -4.104    -4.149    -0.044
F               1.053e-005
   F-                    1.026e-005  9.258e-006    -4.989    -5.033    -0.045
   CaF+                  1.404e-007  1.269e-007    -6.853    -6.896    -0.044
   MgF+                  1.290e-007  1.167e-007    -6.889    -6.933    -0.044
   NaF                   2.511e-009  2.517e-009    -8.600    -8.599     0.001
   HF                    1.710e-009  1.714e-009    -8.767    -8.766     0.001
   HF2-                  6.378e-014  5.768e-014   -13.195   -13.239    -0.044
H(0)            2.870e-025
   H2                    1.435e-025  1.438e-025   -24.843   -24.842     0.001
I               1.577e-008
   I-                    1.577e-008  1.426e-008    -7.802    -7.846    -0.044
K               2.359e-005
   K+                    2.357e-005  2.128e-005    -4.628    -4.672    -0.044
   KSO4-                 1.563e-008  1.413e-008    -7.806    -7.850    -0.044
   KOH                   5.333e-013  5.345e-013   -12.273   -12.272     0.001
Li              7.209e-007
   Li+                   7.206e-007  6.548e-007    -6.142    -6.184    -0.042
   LiSO4-                3.342e-010  3.022e-010    -9.476    -9.520    -0.044
   LiOH                  1.084e-013  1.086e-013   -12.965   -12.964     0.001
Mg              3.337e-004
   Mg+2                  3.145e-004  2.143e-004    -3.502    -3.669    -0.167
   MgHCO3+               1.426e-005  1.290e-005    -4.846    -4.889    -0.044
   MgSO4                 4.490e-006  4.500e-006    -5.348    -5.347     0.001
   MgCO3                 2.888e-007  2.895e-007    -6.539    -6.538     0.001
   MgF+                  1.290e-007  1.167e-007    -6.889    -6.933    -0.044
   MgOH+                 3.485e-009  3.152e-009    -8.458    -8.501    -0.044
N(-3)           2.857e-006
   NH4+                  2.847e-006  2.561e-006    -5.546    -5.592    -0.046
   NH3                   6.693e-009  6.708e-009    -8.174    -8.173     0.001
   NH4SO4-               3.858e-009  3.488e-009    -8.414    -8.457    -0.044
N(5)            7.521e-005
   NO3-                  7.521e-005  6.777e-005    -4.124    -4.169    -0.045
Na              5.235e-004
   Na+                   5.218e-004  4.724e-004    -3.282    -3.326    -0.043
   NaHCO3                1.396e-006  1.400e-006    -5.855    -5.854     0.001
   NaSO4-                2.658e-007  2.403e-007    -6.575    -6.619    -0.044
   NaCO3-                1.097e-008  9.916e-009    -7.960    -8.004    -0.044
   NaF                   2.511e-009  2.517e-009    -8.600    -8.599     0.001
   NaOH                  2.256e-011  2.261e-011   -10.647   -10.646     0.001
O(0)            0.000e+000
   O2                    0.000e+000  0.000e+000   -44.774   -44.773     0.001
S(6)            1.979e-004
   SO4-2                 1.569e-004  1.057e-004    -3.804    -3.976    -0.171
   CaSO4                 3.626e-005  3.634e-005    -4.441    -4.440     0.001
   MgSO4                 4.490e-006  4.500e-006    -5.348    -5.347     0.001
   NaSO4-                2.658e-007  2.403e-007    -6.575    -6.619    -0.044
   SrSO4                 3.992e-008  4.001e-008    -7.399    -7.398     0.001
   BaSO4                 1.729e-008  1.733e-008    -7.762    -7.761     0.001
   KSO4-                 1.563e-008  1.413e-008    -7.806    -7.850    -0.044
   NH4SO4-               3.858e-009  3.488e-009    -8.414    -8.457    -0.044
   HSO4-                 1.373e-009  1.241e-009    -8.862    -8.906    -0.044
   LiSO4-                3.342e-010  3.022e-010    -9.476    -9.520    -0.044
   CaHSO4+               3.019e-011  2.730e-011   -10.520   -10.564    -0.044
Sr              3.277e-006
   Sr+2                  3.085e-006  2.093e-006    -5.511    -5.679    -0.169
   SrHCO3+               1.499e-007  1.360e-007    -6.824    -6.867    -0.042
   SrSO4                 3.992e-008  4.001e-008    -7.399    -7.398     0.001
   SrCO3                 1.726e-009  1.730e-009    -8.763    -8.762     0.001
   SrOH+                 8.580e-013  7.776e-013   -12.067   -12.109    -0.043

------------------------------Saturation indices-------------------------------

	Phase               SI log IAP  log KT

	Anhydrite        -2.37   -6.71   -4.34  CaSO4
	Aragonite        -0.25   -8.54   -8.30  CaCO3
	Barite           -0.39  -10.46  -10.08  BaSO4
	Calcite          -0.10   -8.54   -8.45  CaCO3
	Celestite        -3.03   -9.65   -6.62  SrSO4
	CO2(g)           -1.36   -2.75   -1.39  CO2
	Dolomite         -1.08  -18.02  -16.94  CaMg(CO3)2
	Fluorite         -2.13  -12.80  -10.68  CaF2
	Gypsum           -2.13   -6.71   -4.58  CaSO4:2H2O
	H2(g)           -21.72  -24.84   -3.12  H2
	H2O(g)           -1.68   -0.00    1.68  H2O
	Halite           -9.04   -7.47    1.57  NaCl
	NaBr             -9.67   -9.67    0.00  NaBr
	NH3(g)          -10.07   -8.17    1.90  NH3
	O2(g)           -41.93  -44.77   -2.84  O2
	Strontianite     -2.22  -11.49   -9.27  SrCO3
	Witherite        -3.71  -12.29   -8.58  BaCO3

Initial solution 2.	 01S-04E-03 ACA 1 

-----------------------------Solution composition------------------------------

	Elements           Molality       Moles

	Alkalinity       6.958e-003  6.958e-003
	Ba               7.213e-007  7.213e-007
	Br               1.753e-006  1.753e-006
	Ca               2.391e-003  2.391e-003
	Cl               7.995e-004  7.995e-004
	F                1.053e-005  1.053e-005
	I                2.365e-008  2.365e-008
	K                4.284e-005  4.284e-005
	Li               1.442e-007  1.442e-007
	Mg               2.041e-003  2.041e-003
	N(-3)            2.857e-006  2.857e-006
	N(5)             1.029e-003  1.029e-003
	Na               8.874e-004  8.874e-004
	S(6)             3.286e-004  3.286e-004
	Sr               7.651e-007  7.651e-007

----------------------------Description of solution----------------------------

                                       pH  =   6.900    
                                       pe  =   4.000    
       Specific Conductance (uS/cm, 25 oC) = 873
                          Density (g/cm3)  =   0.99906
                        Activity of water  =   1.000
                           Ionic strength  =  1.364e-002
                       Mass of water (kg)  =  1.000e+000
                    Total carbon (mol/kg)  =  8.816e-003
                       Total CO2 (mol/kg)  =  8.816e-003
                      Temperature (deg C)  =  18.400
                  Electrical balance (eq)  =  3.437e-004
 Percent error, 100*(Cat-|An|)/(Cat+|An|)  =   1.86
                               Iterations  =   9
                                  Total H  = 1.110194e+002
                                  Total O  = 5.553520e+001

---------------------------------Redox couples---------------------------------

	Redox couple             pe  Eh (volts)

	N(-3)/N(5)           6.9676      0.4031

----------------------------Distribution of species----------------------------

                                                   Log       Log         Log 
   Species                 Molality    Activity  Molality  Activity     Gamma

   H+                    1.392e-007  1.259e-007    -6.856    -6.900    -0.044
   OH-                   5.342e-008  4.740e-008    -7.272    -7.324    -0.052
   H2O                   5.551e+001  9.997e-001     1.744    -0.000     0.000
Ba              7.213e-007
   Ba+2                  6.655e-007  4.222e-007    -6.177    -6.374    -0.198
   BaSO4                 3.316e-008  3.327e-008    -7.479    -7.478     0.001
   BaHCO3+               2.223e-008  1.979e-008    -7.653    -7.704    -0.051
   BaCO3                 3.693e-010  3.705e-010    -9.433    -9.431     0.001
   BaOH+                 1.277e-013  1.136e-013   -12.894   -12.945    -0.051
Br              1.753e-006
   Br-                   1.753e-006  1.552e-006    -5.756    -5.809    -0.053
C(4)            8.816e-003
   HCO3-                 6.733e-003  6.018e-003    -2.172    -2.221    -0.049
   CO2                   1.867e-003  1.873e-003    -2.729    -2.728     0.001
   CaHCO3+               1.091e-004  9.750e-005    -3.962    -4.011    -0.049
   MgHCO3+               9.457e-005  8.417e-005    -4.024    -4.075    -0.051
   CaCO3                 4.125e-006  4.138e-006    -5.385    -5.383     0.001
   CO3-2                 3.039e-006  1.939e-006    -5.517    -5.712    -0.195
   NaHCO3                2.658e-006  2.666e-006    -5.575    -5.574     0.001
   MgCO3                 2.042e-006  2.049e-006    -5.690    -5.688     0.001
   SrHCO3+               3.752e-008  3.353e-008    -7.426    -7.475    -0.049
   NaCO3-                2.275e-008  2.024e-008    -7.643    -7.694    -0.051
   BaHCO3+               2.223e-008  1.979e-008    -7.653    -7.704    -0.051
   SrCO3                 4.637e-010  4.652e-010    -9.334    -9.332     0.001
   BaCO3                 3.693e-010  3.705e-010    -9.433    -9.431     0.001
Ca              2.391e-003
   Ca+2                  2.236e-003  1.426e-003    -2.650    -2.846    -0.195
   CaHCO3+               1.091e-004  9.750e-005    -3.962    -4.011    -0.049
   CaSO4                 4.187e-005  4.200e-005    -4.378    -4.377     0.001
   CaCO3                 4.125e-006  4.138e-006    -5.385    -5.383     0.001
   CaF+                  1.030e-007  9.162e-008    -6.987    -7.038    -0.051
   CaOH+                 2.112e-009  1.879e-009    -8.675    -8.726    -0.051
   CaHSO4+               3.223e-011  2.868e-011   -10.492   -10.542    -0.051
Cl              7.995e-004
   Cl-                   7.995e-004  7.098e-004    -3.097    -3.149    -0.052
F               1.053e-005
   F-                    9.730e-006  8.634e-006    -5.012    -5.064    -0.052
   MgF+                  6.950e-007  6.185e-007    -6.158    -6.209    -0.051
   CaF+                  1.030e-007  9.162e-008    -6.987    -7.038    -0.051
   NaF                   3.902e-009  3.915e-009    -8.409    -8.407     0.001
   HF                    1.445e-009  1.450e-009    -8.840    -8.839     0.001
   HF2-                  5.100e-014  4.539e-014   -13.292   -13.343    -0.051
H(0)            2.393e-025
   H2                    1.196e-025  1.200e-025   -24.922   -24.921     0.001
I               2.365e-008
   I-                    2.365e-008  2.105e-008    -7.626    -7.677    -0.051
K               4.284e-005
   K+                    4.279e-005  3.799e-005    -4.369    -4.420    -0.052
   KSO4-                 4.192e-008  3.730e-008    -7.378    -7.428    -0.051
   KOH                   1.043e-012  1.046e-012   -11.982   -11.980     0.001
Li              1.442e-007
   Li+                   1.441e-007  1.291e-007    -6.841    -6.889    -0.048
   LiSO4-                9.951e-011  8.856e-011   -10.002   -10.053    -0.051
   LiOH                  2.341e-014  2.348e-014   -13.631   -13.629     0.001
Mg              2.041e-003
   Mg+2                  1.905e-003  1.225e-003    -2.720    -2.912    -0.192
   MgHCO3+               9.457e-005  8.417e-005    -4.024    -4.075    -0.051
   MgSO4                 3.783e-005  3.795e-005    -4.422    -4.421     0.001
   MgCO3                 2.042e-006  2.049e-006    -5.690    -5.688     0.001
   MgF+                  6.950e-007  6.185e-007    -6.158    -6.209    -0.051
   MgOH+                 2.158e-008  1.920e-008    -7.666    -7.717    -0.051
N(-3)           2.857e-006
   NH4+                  2.845e-006  2.514e-006    -5.546    -5.600    -0.054
   NH3                   7.039e-009  7.061e-009    -8.152    -8.151     0.001
   NH4SO4-               5.720e-009  5.091e-009    -8.243    -8.293    -0.051
N(5)            1.029e-003
   NO3-                  1.029e-003  9.115e-004    -2.987    -3.040    -0.053
Na              8.874e-004
   Na+                   8.841e-004  7.879e-004    -3.054    -3.104    -0.050
   NaHCO3                2.658e-006  2.666e-006    -5.575    -5.574     0.001
   NaSO4-                6.683e-007  5.948e-007    -6.175    -6.226    -0.051
   NaCO3-                2.275e-008  2.024e-008    -7.643    -7.694    -0.051
   NaF                   3.902e-009  3.915e-009    -8.409    -8.407     0.001
   NaOH                  4.121e-011  4.134e-011   -10.385   -10.384     0.001
O(0)            0.000e+000
   O2                    0.000e+000  0.000e+000   -44.718   -44.717     0.001
S(6)            3.286e-004
   SO4-2                 2.481e-004  1.572e-004    -3.605    -3.804    -0.198
   CaSO4                 4.187e-005  4.200e-005    -4.378    -4.377     0.001
   MgSO4                 3.783e-005  3.795e-005    -4.422    -4.421     0.001
   NaSO4-                6.683e-007  5.948e-007    -6.175    -6.226    -0.051
   KSO4-                 4.192e-008  3.730e-008    -7.378    -7.428    -0.051
   BaSO4                 3.316e-008  3.327e-008    -7.479    -7.478     0.001
   SrSO4                 1.289e-008  1.293e-008    -7.890    -7.889     0.001
   NH4SO4-               5.720e-009  5.091e-009    -8.243    -8.293    -0.051
   HSO4-                 1.880e-009  1.673e-009    -8.726    -8.777    -0.051
   LiSO4-                9.951e-011  8.856e-011   -10.002   -10.053    -0.051
   CaHSO4+               3.223e-011  2.868e-011   -10.492   -10.542    -0.051
Sr              7.651e-007
   Sr+2                  7.143e-007  4.566e-007    -6.146    -6.340    -0.194
   SrHCO3+               3.752e-008  3.353e-008    -7.426    -7.475    -0.049
   SrSO4                 1.289e-008  1.293e-008    -7.890    -7.889     0.001
   SrCO3                 4.637e-010  4.652e-010    -9.334    -9.332     0.001
   SrOH+                 2.084e-013  1.860e-013   -12.681   -12.731    -0.049

------------------------------Saturation indices-------------------------------

	Phase               SI log IAP  log KT

	Anhydrite        -2.31   -6.65   -4.34  CaSO4
	Aragonite        -0.26   -8.56   -8.30  CaCO3
	Barite           -0.10  -10.18  -10.08  BaSO4
	Calcite          -0.11   -8.56   -8.45  CaCO3
	Celestite        -3.52  -10.14   -6.62  SrSO4
	CO2(g)           -1.34   -2.73   -1.39  CO2
	Dolomite         -0.25  -17.18  -16.93  CaMg(CO3)2
	Fluorite         -2.29  -12.97  -10.68  CaF2
	Gypsum           -2.07   -6.65   -4.58  CaSO4:2H2O
	H2(g)           -21.80  -24.92   -3.12  H2
	H2O(g)           -1.68   -0.00    1.68  H2O
	Halite           -7.82   -6.25    1.57  NaCl
	NaBr             -8.91   -8.91    0.00  NaBr
	NH3(g)          -10.06   -8.15    1.91  NH3
	O2(g)           -41.88  -44.72   -2.84  O2
	Strontianite     -2.78  -12.05   -9.27  SrCO3
	Witherite        -3.51  -12.09   -8.58  BaCO3

Initial solution 3.	 01S-05E-27 AAB 1 

-----------------------------Solution composition------------------------------

	Elements           Molality       Moles

	Alkalinity       6.578e-003  6.578e-003
	Ba               1.552e-006  1.552e-006
	Br               1.002e-006  1.002e-006
	Ca               2.017e-003  2.017e-003
	Cl               2.362e-004  2.362e-004
	F                5.266e-006  5.266e-006
	I                7.884e-009  7.884e-009
	K                2.026e-005  2.026e-005
	Li               1.442e-007  1.442e-007
	Mg               1.630e-003  1.630e-003
	N(-3)            2.857e-006  2.857e-006
	N(5)             2.966e-004  2.966e-004
	Na               2.147e-004  2.147e-004
	S(6)             1.123e-004  1.123e-004
	Sr               7.422e-007  7.422e-007

----------------------------Description of solution----------------------------

                                       pH  =   6.910    
                                       pe  =   4.000    
       Specific Conductance (uS/cm, 25 oC) = 659
                          Density (g/cm3)  =   0.99899
                        Activity of water  =   1.000
                           Ionic strength  =  1.075e-002
                       Mass of water (kg)  =  1.000e+000
                    Total carbon (mol/kg)  =  8.324e-003
                       Total CO2 (mol/kg)  =  8.324e-003
                      Temperature (deg C)  =  18.300
                  Electrical balance (eq)  =  1.958e-004
 Percent error, 100*(Cat-|An|)/(Cat+|An|)  =   1.36
                               Iterations  =   9
                                  Total H  = 1.110190e+002
                                  Total O  = 5.553077e+001

---------------------------------Redox couples---------------------------------

	Redox couple             pe  Eh (volts)

	N(-3)/N(5)           6.8934      0.3986

----------------------------Distribution of species----------------------------

                                                   Log       Log         Log 
   Species                 Molality    Activity  Molality  Activity     Gamma

   H+                    1.349e-007  1.230e-007    -6.870    -6.910    -0.040
   OH-                   5.358e-008  4.812e-008    -7.271    -7.318    -0.047
   H2O                   5.551e+001  9.998e-001     1.744    -0.000     0.000
Ba              1.552e-006
   Ba+2                  1.474e-006  9.770e-007    -5.831    -6.010    -0.179
   BaHCO3+               4.866e-008  4.380e-008    -7.313    -7.359    -0.046
   BaSO4                 2.811e-008  2.818e-008    -7.551    -7.550     0.001
   BaCO3                 8.362e-010  8.382e-010    -9.078    -9.077     0.001
   BaOH+                 2.989e-013  2.690e-013   -12.525   -12.570    -0.046
Br              1.002e-006
   Br-                   1.002e-006  8.981e-007    -5.999    -6.047    -0.047
C(4)            8.324e-003
   HCO3-                 6.393e-003  5.775e-003    -2.194    -2.238    -0.044
   CO2                   1.755e-003  1.759e-003    -2.756    -2.755     0.001
   CaHCO3+               9.203e-005  8.314e-005    -4.036    -4.080    -0.044
   MgHCO3+               7.558e-005  6.804e-005    -4.122    -4.167    -0.046
   CaCO3                 3.595e-006  3.604e-006    -5.444    -5.443     0.001
   CO3-2                 2.853e-006  1.900e-006    -5.545    -5.721    -0.177
   MgCO3                 1.684e-006  1.689e-006    -5.774    -5.772     0.001
   NaHCO3                6.249e-007  6.264e-007    -6.204    -6.203     0.001
   BaHCO3+               4.866e-008  4.380e-008    -7.313    -7.359    -0.046
   SrHCO3+               3.632e-008  3.281e-008    -7.440    -7.484    -0.044
   NaCO3-                5.365e-009  4.829e-009    -8.270    -8.316    -0.046
   BaCO3                 8.362e-010  8.382e-010    -9.078    -9.077     0.001
   SrCO3                 4.638e-010  4.649e-010    -9.334    -9.333     0.001
Ca              2.017e-003
   Ca+2                  1.908e-003  1.270e-003    -2.719    -2.896    -0.177
   CaHCO3+               9.203e-005  8.314e-005    -4.036    -4.080    -0.044
   CaSO4                 1.364e-005  1.368e-005    -4.865    -4.864     0.001
   CaCO3                 3.595e-006  3.604e-006    -5.444    -5.443     0.001
   CaF+                  4.629e-008  4.167e-008    -7.334    -7.380    -0.046
   CaOH+                 1.902e-009  1.712e-009    -8.721    -8.766    -0.046
   CaHSO4+               1.013e-011  9.116e-012   -10.994   -11.040    -0.046
Cl              2.362e-004
   Cl-                   2.362e-004  2.122e-004    -3.627    -3.673    -0.047
F               5.266e-006
   F-                    4.923e-006  4.421e-006    -5.308    -5.354    -0.047
   MgF+                  2.959e-007  2.663e-007    -6.529    -6.575    -0.046
   CaF+                  4.629e-008  4.167e-008    -7.334    -7.380    -0.046
   HF                    7.225e-010  7.243e-010    -9.141    -9.140     0.001
   NaF                   4.895e-010  4.907e-010    -9.310    -9.309     0.001
   HF2-                  1.288e-014  1.160e-014   -13.890   -13.936    -0.046
H(0)            2.289e-025
   H2                    1.144e-025  1.147e-025   -24.941   -24.940     0.001
I               7.884e-009
   I-                    7.884e-009  7.096e-009    -8.103    -8.149    -0.046
K               2.026e-005
   K+                    2.026e-005  1.820e-005    -4.693    -4.740    -0.047
   KSO4-                 7.254e-009  6.530e-009    -8.139    -8.185    -0.046
   KOH                   5.115e-013  5.128e-013   -12.291   -12.290     0.001
Li              1.442e-007
   Li+                   1.441e-007  1.304e-007    -6.841    -6.885    -0.043
   LiSO4-                3.640e-011  3.277e-011   -10.439   -10.485    -0.046
   LiOH                  2.422e-014  2.428e-014   -13.616   -13.615     0.001
Mg              1.630e-003
   Mg+2                  1.541e-003  1.032e-003    -2.812    -2.986    -0.174
   MgHCO3+               7.558e-005  6.804e-005    -4.122    -4.167    -0.046
   MgSO4                 1.164e-005  1.167e-005    -4.934    -4.933     0.001
   MgCO3                 1.684e-006  1.689e-006    -5.774    -5.772     0.001
   MgF+                  2.959e-007  2.663e-007    -6.529    -6.575    -0.046
   MgOH+                 1.822e-008  1.640e-008    -7.739    -7.785    -0.046
N(-3)           2.857e-006
   NH4+                  2.848e-006  2.549e-006    -5.545    -5.594    -0.048
   NH3                   7.255e-009  7.273e-009    -8.139    -8.138     0.001
   NH4SO4-               2.099e-009  1.890e-009    -8.678    -8.724    -0.046
N(5)            2.966e-004
   NO3-                  2.966e-004  2.659e-004    -3.528    -3.575    -0.047
Na              2.147e-004
   Na+                   2.140e-004  1.929e-004    -3.670    -3.715    -0.045
   NaHCO3                6.249e-007  6.264e-007    -6.204    -6.203     0.001
   NaSO4-                5.918e-008  5.327e-008    -7.228    -7.274    -0.046
   NaCO3-                5.365e-009  4.829e-009    -8.270    -8.316    -0.046
   NaF                   4.895e-010  4.907e-010    -9.310    -9.309     0.001
   NaOH                  1.033e-011  1.036e-011   -10.986   -10.985     0.001
O(0)            0.000e+000
   O2                    0.000e+000  0.000e+000   -44.713   -44.711     0.001
S(6)            1.123e-004
   SO4-2                 8.691e-005  5.755e-005    -4.061    -4.240    -0.179
   CaSO4                 1.364e-005  1.368e-005    -4.865    -4.864     0.001
   MgSO4                 1.164e-005  1.167e-005    -4.934    -4.933     0.001
   NaSO4-                5.918e-008  5.327e-008    -7.228    -7.274    -0.046
   BaSO4                 2.811e-008  2.818e-008    -7.551    -7.550     0.001
   KSO4-                 7.254e-009  6.530e-009    -8.139    -8.185    -0.046
   SrSO4                 4.824e-009  4.836e-009    -8.317    -8.316     0.001
   NH4SO4-               2.099e-009  1.890e-009    -8.678    -8.724    -0.046
   HSO4-                 6.634e-010  5.972e-010    -9.178    -9.224    -0.046
   LiSO4-                3.640e-011  3.277e-011   -10.439   -10.485    -0.046
   CaHSO4+               1.013e-011  9.116e-012   -10.994   -11.040    -0.046
Sr              7.422e-007
   Sr+2                  7.006e-007  4.672e-007    -6.155    -6.331    -0.176
   SrHCO3+               3.632e-008  3.281e-008    -7.440    -7.484    -0.044
   SrSO4                 4.824e-009  4.836e-009    -8.317    -8.316     0.001
   SrCO3                 4.638e-010  4.649e-010    -9.334    -9.333     0.001
   SrOH+                 2.158e-013  1.947e-013   -12.666   -12.711    -0.045

------------------------------Saturation indices-------------------------------

	Phase               SI log IAP  log KT

	Anhydrite        -2.80   -7.14   -4.34  CaSO4
	Aragonite        -0.32   -8.62   -8.30  CaCO3
	Barite           -0.17  -10.25  -10.08  BaSO4
	Calcite          -0.17   -8.62   -8.45  CaCO3
	Celestite        -3.95  -10.57   -6.62  SrSO4
	CO2(g)           -1.37   -2.75   -1.38  CO2
	Dolomite         -0.39  -17.32  -16.93  CaMg(CO3)2
	Fluorite         -2.92  -13.61  -10.68  CaF2
	Gypsum           -2.55   -7.14   -4.58  CaSO4:2H2O
	H2(g)           -21.82  -24.94   -3.12  H2
	H2O(g)           -1.69   -0.00    1.69  H2O
	Halite           -8.95   -7.39    1.57  NaCl
	NaBr             -9.76   -9.76    0.00  NaBr
	NH3(g)          -10.05   -8.14    1.91  NH3
	O2(g)           -41.87  -44.71   -2.84  O2
	Strontianite     -2.78  -12.05   -9.27  SrCO3
	Witherite        -3.15  -11.73   -8.58  BaCO3

Initial solution 4.	 01S-06E-22 BCC 1        Washington Spring 

-----------------------------Solution composition------------------------------

	Elements           Molality       Moles

	Alkalinity       6.817e-003  6.817e-003
	Ba               3.424e-007  3.424e-007
	Br               2.504e-006  2.504e-006
	Ca               1.827e-003  1.827e-003
	Cl               6.395e-005  6.395e-005
	F                1.053e-005  1.053e-005
	I                7.884e-009  7.884e-009
	K                3.068e-005  3.068e-005
	Li               1.442e-007  1.442e-007
	Mg               1.602e-003  1.602e-003
	N(-3)            2.857e-006  2.857e-006
	N(5)             5.450e-005  5.450e-005
	Na               9.443e-005  9.443e-005
	S(6)             5.108e-005  5.108e-005
	Sr               6.166e-007  6.166e-007

----------------------------Description of solution----------------------------

                                       pH  =   7.100    
                                       pe  =   4.000    
       Specific Conductance (uS/cm, 25 oC) = 612
                          Density (g/cm3)  =   0.99913
                        Activity of water  =   1.000
                           Ionic strength  =  1.011e-002
                       Mass of water (kg)  =  1.000e+000
                    Total carbon (mol/kg)  =  7.999e-003
                       Total CO2 (mol/kg)  =  7.999e-003
                      Temperature (deg C)  =  17.500
                  Electrical balance (eq)  = -6.203e-005
 Percent error, 100*(Cat-|An|)/(Cat+|An|)  =  -0.45
                               Iterations  =   9
                                  Total H  = 1.110192e+002
                                  Total O  = 5.552939e+001

---------------------------------Redox couples---------------------------------

	Redox couple             pe  Eh (volts)

	N(-3)/N(5)           6.6123      0.3813

----------------------------Distribution of species----------------------------

                                                   Log       Log         Log 
   Species                 Molality    Activity  Molality  Activity     Gamma

   H+                    8.690e-008  7.943e-008    -7.061    -7.100    -0.039
   OH-                   7.751e-008  6.982e-008    -7.111    -7.156    -0.045
   H2O                   5.551e+001  9.998e-001     1.744    -0.000     0.000
Ba              3.424e-007
   Ba+2                  3.281e-007  2.199e-007    -6.484    -6.658    -0.174
   BaHCO3+               1.107e-008  9.995e-009    -7.956    -8.000    -0.044
   BaSO4                 2.946e-009  2.952e-009    -8.531    -8.530     0.001
   BaCO3                 2.926e-010  2.932e-010    -9.534    -9.533     0.001
   BaOH+                 1.039e-013  9.378e-014   -12.983   -13.028    -0.044
Br              2.504e-006
   Br-                   2.504e-006  2.252e-006    -5.601    -5.647    -0.046
C(4)            7.999e-003
   HCO3-                 6.629e-003  6.004e-003    -2.179    -2.222    -0.043
   CO2                   1.194e-003  1.197e-003    -2.923    -2.922     0.001
   CaHCO3+               8.607e-005  7.797e-005    -4.065    -4.108    -0.043
   MgHCO3+               7.772e-005  7.017e-005    -4.109    -4.154    -0.044
   CaCO3                 5.148e-006  5.160e-006    -5.288    -5.287     0.001
   CO3-2                 4.458e-006  3.001e-006    -5.351    -5.523    -0.172
   MgCO3                 2.613e-006  2.620e-006    -5.583    -5.582     0.001
   NaHCO3                2.866e-007  2.873e-007    -6.543    -6.542     0.001
   SrHCO3+               3.084e-008  2.794e-008    -7.511    -7.554    -0.043
   BaHCO3+               1.107e-008  9.995e-009    -7.956    -8.000    -0.044
   NaCO3-                3.573e-009  3.225e-009    -8.447    -8.491    -0.044
   SrCO3                 6.022e-010  6.036e-010    -9.220    -9.219     0.001
   BaCO3                 2.926e-010  2.932e-010    -9.534    -9.533     0.001
Ca              1.827e-003
   Ca+2                  1.730e-003  1.164e-003    -2.762    -2.934    -0.172
   CaHCO3+               8.607e-005  7.797e-005    -4.065    -4.108    -0.043
   CaSO4                 5.778e-006  5.792e-006    -5.238    -5.237     0.001
   CaCO3                 5.148e-006  5.160e-006    -5.288    -5.287     0.001
   CaF+                  8.344e-008  7.532e-008    -7.079    -7.123    -0.044
   CaOH+                 2.694e-009  2.432e-009    -8.570    -8.614    -0.044
   CaHSO4+               2.738e-012  2.472e-012   -11.563   -11.607    -0.044
Cl              6.395e-005
   Cl-                   6.395e-005  5.762e-005    -4.194    -4.239    -0.045
F               1.053e-005
   F-                    9.866e-006  8.888e-006    -5.006    -5.051    -0.045
   MgF+                  5.808e-007  5.243e-007    -6.236    -6.280    -0.044
   CaF+                  8.344e-008  7.532e-008    -7.079    -7.123    -0.044
   HF                    9.249e-010  9.271e-010    -9.034    -9.033     0.001
   NaF                   4.341e-010  4.351e-010    -9.362    -9.361     0.001
   HF2-                  3.281e-014  2.962e-014   -13.484   -13.528    -0.044
H(0)            9.623e-026
   H2                    4.811e-026  4.822e-026   -25.318   -25.317     0.001
I               7.884e-009
   I-                    7.884e-009  7.117e-009    -8.103    -8.148    -0.044
K               3.068e-005
   K+                    3.067e-005  2.764e-005    -4.513    -4.558    -0.045
   KSO4-                 5.039e-009  4.549e-009    -8.298    -8.342    -0.044
   KOH                   1.203e-012  1.206e-012   -11.920   -11.919     0.001
Li              1.442e-007
   Li+                   1.442e-007  1.308e-007    -6.841    -6.883    -0.042
   LiSO4-                1.694e-011  1.530e-011   -10.771   -10.815    -0.044
   LiOH                  3.763e-014  3.772e-014   -13.424   -13.423     0.001
Mg              1.602e-003
   Mg+2                  1.516e-003  1.026e-003    -2.819    -2.989    -0.169
   MgHCO3+               7.772e-005  7.017e-005    -4.109    -4.154    -0.044
   MgSO4                 5.275e-006  5.287e-006    -5.278    -5.277     0.001
   MgCO3                 2.613e-006  2.620e-006    -5.583    -5.582     0.001
   MgF+                  5.808e-007  5.243e-007    -6.236    -6.280    -0.044
   MgOH+                 2.594e-008  2.342e-008    -7.586    -7.630    -0.044
N(-3)           2.857e-006
   NH4+                  2.846e-006  2.555e-006    -5.546    -5.593    -0.047
   NH3                   1.062e-008  1.064e-008    -7.974    -7.973     0.001
   NH4SO4-               9.769e-010  8.818e-010    -9.010    -9.055    -0.044
N(5)            5.450e-005
   NO3-                  5.450e-005  4.902e-005    -4.264    -4.310    -0.046
Na              9.443e-005
   Na+                   9.413e-005  8.507e-005    -4.026    -4.070    -0.044
   NaHCO3                2.866e-007  2.873e-007    -6.543    -6.542     0.001
   NaSO4-                1.205e-008  1.088e-008    -7.919    -7.963    -0.044
   NaCO3-                3.573e-009  3.225e-009    -8.447    -8.491    -0.044
   NaF                   4.341e-010  4.351e-010    -9.362    -9.361     0.001
   NaOH                  7.058e-012  7.075e-012   -11.151   -11.150     0.001
O(0)            0.000e+000
   O2                    0.000e+000  0.000e+000   -44.231   -44.230     0.001
S(6)            5.108e-005
   SO4-2                 4.001e-005  2.679e-005    -4.398    -4.572    -0.174
   CaSO4                 5.778e-006  5.792e-006    -5.238    -5.237     0.001
   MgSO4                 5.275e-006  5.287e-006    -5.278    -5.277     0.001
   NaSO4-                1.205e-008  1.088e-008    -7.919    -7.963    -0.044
   KSO4-                 5.039e-009  4.549e-009    -8.298    -8.342    -0.044
   BaSO4                 2.946e-009  2.952e-009    -8.531    -8.530     0.001
   SrSO4                 1.872e-009  1.876e-009    -8.728    -8.727     0.001
   NH4SO4-               9.769e-010  8.818e-010    -9.010    -9.055    -0.044
   HSO4-                 1.956e-010  1.766e-010    -9.709    -9.753    -0.044
   LiSO4-                1.694e-011  1.530e-011   -10.771   -10.815    -0.044
   CaHSO4+               2.738e-012  2.472e-012   -11.563   -11.607    -0.044
Sr              6.166e-007
   Sr+2                  5.833e-007  3.932e-007    -6.234    -6.405    -0.171
   SrHCO3+               3.084e-008  2.794e-008    -7.511    -7.554    -0.043
   SrSO4                 1.872e-009  1.876e-009    -8.728    -8.727     0.001
   SrCO3                 6.022e-010  6.036e-010    -9.220    -9.219     0.001
   SrOH+                 2.805e-013  2.538e-013   -12.552   -12.595    -0.043

------------------------------Saturation indices-------------------------------

	Phase               SI log IAP  log KT

	Anhydrite        -3.17   -7.51   -4.34  CaSO4
	Aragonite        -0.16   -8.46   -8.29  CaCO3
	Barite           -1.13  -11.23  -10.10  BaSO4
	Calcite          -0.02   -8.46   -8.44  CaCO3
	Celestite        -4.36  -10.98   -6.62  SrSO4
	CO2(g)           -1.55   -2.92   -1.37  CO2
	Dolomite         -0.06  -16.97  -16.91  CaMg(CO3)2
	Fluorite         -2.34  -13.04  -10.69  CaF2
	Gypsum           -2.92   -7.51   -4.58  CaSO4:2H2O
	H2(g)           -22.20  -25.32   -3.12  H2
	H2O(g)           -1.71   -0.00    1.71  H2O
	Halite           -9.87   -8.31    1.56  NaCl
	NaBr             -9.72   -9.72    0.00  NaBr
	NH3(g)           -9.90   -7.97    1.92  NH3
	O2(g)           -41.40  -44.23   -2.83  O2
	Strontianite     -2.66  -11.93   -9.27  SrCO3
	Witherite        -3.60  -12.18   -8.59  BaCO3

Initial solution 5.	 01S-06E-26 ADD 1 

-----------------------------Solution composition------------------------------

	Elements           Molality       Moles

	Alkalinity       8.858e-003  8.858e-003
	Ba               4.663e-007  4.663e-007
	Br               1.127e-006  1.127e-006
	Ca               2.586e-003  2.586e-003
	Cl               2.771e-004  2.771e-004
	F                5.267e-006  5.267e-006
	I                2.365e-008  2.365e-008
	K                4.056e-005  4.056e-005
	Li               1.442e-007  1.442e-007
	Mg               2.267e-003  2.267e-003
	N(-3)            2.858e-006  2.858e-006
	N(5)             1.596e-004  1.596e-004
	Na               3.768e-004  3.768e-004
	S(6)             1.778e-004  1.778e-004
	Sr               7.766e-007  7.766e-007

----------------------------Description of solution----------------------------

                                       pH  =   6.700    
                                       pe  =   4.000    
       Specific Conductance (uS/cm, 25 oC) = 849
                          Density (g/cm3)  =   0.99913
                        Activity of water  =   1.000
                           Ionic strength  =  1.417e-002
                       Mass of water (kg)  =  1.000e+000
                    Total carbon (mol/kg)  =  1.261e-002
                       Total CO2 (mol/kg)  =  1.261e-002
                      Temperature (deg C)  =  18.400
                  Electrical balance (eq)  =  4.738e-004
 Percent error, 100*(Cat-|An|)/(Cat+|An|)  =   2.49
                               Iterations  =   8
                                  Total H  = 1.110213e+002
                                  Total O  = 5.554147e+001

---------------------------------Redox couples---------------------------------

	Redox couple             pe  Eh (volts)

	N(-3)/N(5)           7.1163      0.4117

----------------------------Distribution of species----------------------------

                                                   Log       Log         Log 
   Species                 Molality    Activity  Molality  Activity     Gamma

   H+                    2.210e-007  1.995e-007    -6.656    -6.700    -0.044
   OH-                   3.377e-008  2.991e-008    -7.471    -7.524    -0.053
   H2O                   5.551e+001  9.997e-001     1.744    -0.000     0.000
Ba              4.663e-007
   Ba+2                  4.363e-007  2.748e-007    -6.360    -6.561    -0.201
   BaHCO3+               1.840e-008  1.634e-008    -7.735    -7.787    -0.051
   BaSO4                 1.140e-008  1.143e-008    -7.943    -7.942     0.001
   BaCO3                 1.925e-010  1.931e-010    -9.716    -9.714     0.001
   BaOH+                 5.252e-014  4.665e-014   -13.280   -13.331    -0.051
Br              1.127e-006
   Br-                   1.127e-006  9.960e-007    -5.948    -6.002    -0.054
C(4)            1.261e-002
   HCO3-                 8.560e-003  7.637e-003    -2.068    -2.117    -0.050
   CO2                   3.755e-003  3.767e-003    -2.425    -2.424     0.001
   CaHCO3+               1.485e-004  1.325e-004    -3.828    -3.878    -0.050
   MgHCO3+               1.323e-004  1.175e-004    -3.878    -3.930    -0.051
   CaCO3                 3.535e-006  3.547e-006    -5.452    -5.450     0.001
   CO3-2                 2.451e-006  1.553e-006    -5.611    -5.809    -0.198
   MgCO3                 1.799e-006  1.805e-006    -5.745    -5.743     0.001
   NaHCO3                1.429e-006  1.433e-006    -5.845    -5.844     0.001
   SrHCO3+               4.785e-008  4.269e-008    -7.320    -7.370    -0.050
   BaHCO3+               1.840e-008  1.634e-008    -7.735    -7.787    -0.051
   NaCO3-                7.730e-009  6.866e-009    -8.112    -8.163    -0.051
   SrCO3                 3.724e-010  3.737e-010    -9.429    -9.428     0.001
   BaCO3                 1.925e-010  1.931e-010    -9.716    -9.714     0.001
Ca              2.586e-003
   Ca+2                  2.411e-003  1.527e-003    -2.618    -2.816    -0.198
   CaHCO3+               1.485e-004  1.325e-004    -3.828    -3.878    -0.050
   CaSO4                 2.366e-005  2.374e-005    -4.626    -4.625     0.001
   CaCO3                 3.535e-006  3.547e-006    -5.452    -5.450     0.001
   CaF+                  5.471e-008  4.860e-008    -7.262    -7.313    -0.051
   CaOH+                 1.429e-009  1.269e-009    -8.845    -8.896    -0.051
   CaHSO4+               2.892e-011  2.569e-011   -10.539   -10.590    -0.051
Cl              2.771e-004
   Cl-                   2.771e-004  2.455e-004    -3.557    -3.610    -0.053
F               5.267e-006
   F-                    4.831e-006  4.278e-006    -5.316    -5.369    -0.053
   MgF+                  3.796e-007  3.372e-007    -6.421    -6.472    -0.051
   CaF+                  5.471e-008  4.860e-008    -7.262    -7.313    -0.051
   HF                    1.135e-009  1.139e-009    -8.945    -8.944     0.001
   NaF                   8.189e-010  8.216e-010    -9.087    -9.085     0.001
   HF2-                  1.988e-014  1.766e-014   -13.702   -13.753    -0.051
H(0)            6.009e-025
   H2                    3.004e-025  3.014e-025   -24.522   -24.521     0.001
I               2.365e-008
   I-                    2.365e-008  2.101e-008    -7.626    -7.678    -0.051
K               4.056e-005
   K+                    4.054e-005  3.592e-005    -4.392    -4.445    -0.053
   KSO4-                 2.096e-008  1.862e-008    -7.679    -7.730    -0.051
   KOH                   6.220e-013  6.240e-013   -12.206   -12.205     0.001
Li              1.442e-007
   Li+                   1.442e-007  1.289e-007    -6.841    -6.890    -0.049
   LiSO4-                5.258e-011  4.670e-011   -10.279   -10.331    -0.051
   LiOH                  1.475e-014  1.479e-014   -13.831   -13.830     0.001
Mg              2.267e-003
   Mg+2                  2.111e-003  1.348e-003    -2.676    -2.870    -0.195
   MgHCO3+               1.323e-004  1.175e-004    -3.878    -3.930    -0.051
   MgSO4                 2.198e-005  2.205e-005    -4.658    -4.657     0.001
   MgCO3                 1.799e-006  1.805e-006    -5.745    -5.743     0.001
   MgF+                  3.796e-007  3.372e-007    -6.421    -6.472    -0.051
   MgOH+                 1.501e-008  1.333e-008    -7.824    -7.875    -0.051
N(-3)           2.858e-006
   NH4+                  2.850e-006  2.513e-006    -5.545    -5.600    -0.055
   NH3                   4.440e-009  4.454e-009    -8.353    -8.351     0.001
   NH4SO4-               3.025e-009  2.688e-009    -8.519    -8.571    -0.051
N(5)            1.596e-004
   NO3-                  1.596e-004  1.410e-004    -3.797    -3.851    -0.054
Na              3.768e-004
   Na+                   3.752e-004  3.337e-004    -3.426    -3.477    -0.051
   NaHCO3                1.429e-006  1.433e-006    -5.845    -5.844     0.001
   NaSO4-                1.498e-007  1.330e-007    -6.825    -6.876    -0.051
   NaCO3-                7.730e-009  6.866e-009    -8.112    -8.163    -0.051
   NaF                   8.189e-010  8.216e-010    -9.087    -9.085     0.001
   NaOH                  1.101e-011  1.105e-011   -10.958   -10.957     0.001
O(0)            0.000e+000
   O2                    0.000e+000  0.000e+000   -45.518   -45.517     0.001
S(6)            1.778e-004
   SO4-2                 1.320e-004  8.301e-005    -3.880    -4.081    -0.201
   CaSO4                 2.366e-005  2.374e-005    -4.626    -4.625     0.001
   MgSO4                 2.198e-005  2.205e-005    -4.658    -4.657     0.001
   NaSO4-                1.498e-007  1.330e-007    -6.825    -6.876    -0.051
   KSO4-                 2.096e-008  1.862e-008    -7.679    -7.730    -0.051
   BaSO4                 1.140e-008  1.143e-008    -7.943    -7.942     0.001
   SrSO4                 6.825e-009  6.847e-009    -8.166    -8.164     0.001
   NH4SO4-               3.025e-009  2.688e-009    -8.519    -8.571    -0.051
   HSO4-                 1.576e-009  1.400e-009    -8.802    -8.854    -0.051
   LiSO4-                5.258e-011  4.670e-011   -10.279   -10.331    -0.051
   CaHSO4+               2.892e-011  2.569e-011   -10.539   -10.590    -0.051
Sr              7.766e-007
   Sr+2                  7.215e-007  4.580e-007    -6.142    -6.339    -0.197
   SrHCO3+               4.785e-008  4.269e-008    -7.320    -7.370    -0.050
   SrSO4                 6.825e-009  6.847e-009    -8.166    -8.164     0.001
   SrCO3                 3.724e-010  3.737e-010    -9.429    -9.428     0.001
   SrOH+                 1.321e-013  1.177e-013   -12.879   -12.929    -0.050

------------------------------Saturation indices-------------------------------

	Phase               SI log IAP  log KT

	Anhydrite        -2.56   -6.90   -4.34  CaSO4
	Aragonite        -0.33   -8.63   -8.30  CaCO3
	Barite           -0.56  -10.64  -10.08  BaSO4
	Calcite          -0.18   -8.63   -8.45  CaCO3
	Celestite        -3.80  -10.42   -6.62  SrSO4
	CO2(g)           -1.04   -2.42   -1.39  CO2
	Dolomite         -0.37  -17.30  -16.93  CaMg(CO3)2
	Fluorite         -2.87  -13.55  -10.68  CaF2
	Gypsum           -2.32   -6.90   -4.58  CaSO4:2H2O
	H2(g)           -21.40  -24.52   -3.12  H2
	H2O(g)           -1.68   -0.00    1.68  H2O
	Halite           -8.65   -7.09    1.57  NaCl
	NaBr             -9.48   -9.48    0.00  NaBr
	NH3(g)          -10.26   -8.35    1.91  NH3
	O2(g)           -42.68  -45.52   -2.84  O2
	Strontianite     -2.88  -12.15   -9.27  SrCO3
	Witherite        -3.79  -12.37   -8.58  BaCO3

Initial solution 6.	 01S-07E-23 BCC 1  Wood well 

-----------------------------Solution composition------------------------------

	Elements           Molality       Moles

	Alkalinity       5.160e-003  5.160e-003
	Ba               5.757e-007  5.757e-007
	Br               1.202e-005  1.202e-005
	Ca               2.117e-003  2.117e-003
	Cl               7.880e-003  7.880e-003
	F                3.688e-005  3.688e-005
	I                2.681e-007  2.681e-007
	K                2.438e-004  2.438e-004
	Li               5.481e-006  5.481e-006
	Mg               1.592e-003  1.592e-003
	N(-3)            2.172e-005  2.172e-005
	Na               6.143e-003  6.143e-003
	S(6)             4.162e-004  4.162e-004
	Sr               2.833e-005  2.833e-005

----------------------------Description of solution----------------------------

                                       pH  =   7.200    
                                       pe  =   4.000    
       Specific Conductance (uS/cm, 25 oC) = 1435
                          Density (g/cm3)  =   0.99924
                        Activity of water  =   1.000
                           Ionic strength  =  1.744e-002
                       Mass of water (kg)  =  1.000e+000
                    Total carbon (mol/kg)  =  5.833e-003
                       Total CO2 (mol/kg)  =  5.833e-003
                      Temperature (deg C)  =  18.400
                  Electrical balance (eq)  = -3.165e-005
 Percent error, 100*(Cat-|An|)/(Cat+|An|)  =  -0.12
                               Iterations  =   8
                                  Total H  = 1.110177e+002
                                  Total O  = 5.552470e+001

----------------------------Distribution of species----------------------------

                                                   Log       Log         Log 
   Species                 Molality    Activity  Molality  Activity     Gamma

   OH-                   1.080e-007  9.457e-008    -6.966    -7.024    -0.058
   H+                    7.045e-008  6.310e-008    -7.152    -7.200    -0.048
   H2O                   5.551e+001  9.996e-001     1.744    -0.000     0.000
Ba              5.757e-007
   Ba+2                  5.310e-007  3.208e-007    -6.275    -6.494    -0.219
   BaSO4                 3.174e-008  3.187e-008    -7.498    -7.497     0.002
   BaHCO3+               1.255e-008  1.103e-008    -7.901    -7.957    -0.056
   BaCO3                 4.104e-010  4.121e-010    -9.387    -9.385     0.002
   BaOH+                 1.960e-013  1.722e-013   -12.708   -12.764    -0.056
Br              1.202e-005
   Br-                   1.202e-005  1.050e-005    -4.920    -4.979    -0.059
C(4)            5.833e-003
   HCO3-                 4.999e-003  4.415e-003    -2.301    -2.355    -0.054
   CO2                   6.859e-004  6.887e-004    -3.164    -3.162     0.002
   CaHCO3+               6.901e-005  6.095e-005    -4.161    -4.215    -0.054
   MgHCO3+               5.283e-005  4.642e-005    -4.277    -4.333    -0.056
   NaHCO3                1.333e-005  1.338e-005    -4.875    -4.873     0.002
   CaCO3                 5.140e-006  5.161e-006    -5.289    -5.287     0.002
   CO3-2                 4.666e-006  2.839e-006    -5.331    -5.547    -0.216
   MgCO3                 2.246e-006  2.255e-006    -5.649    -5.647     0.002
   SrHCO3+               9.945e-007  8.784e-007    -6.002    -6.056    -0.054
   NaCO3-                2.307e-007  2.027e-007    -6.637    -6.693    -0.056
   SrCO3                 2.422e-008  2.431e-008    -7.616    -7.614     0.002
   BaHCO3+               1.255e-008  1.103e-008    -7.901    -7.957    -0.056
   BaCO3                 4.104e-010  4.121e-010    -9.387    -9.385     0.002
Ca              2.117e-003
   Ca+2                  1.998e-003  1.215e-003    -2.699    -2.915    -0.216
   CaHCO3+               6.901e-005  6.095e-005    -4.161    -4.215    -0.054
   CaSO4                 4.494e-005  4.512e-005    -4.347    -4.346     0.002
   CaCO3                 5.140e-006  5.161e-006    -5.289    -5.287     0.002
   CaF+                  3.118e-007  2.740e-007    -6.506    -6.562    -0.056
   CaOH+                 3.636e-009  3.195e-009    -8.439    -8.496    -0.056
   CaHSO4+               1.757e-011  1.544e-011   -10.755   -10.811    -0.056
Cl              7.880e-003
   Cl-                   7.880e-003  6.903e-003    -2.103    -2.161    -0.058
F               3.688e-005
   F-                    3.461e-005  3.030e-005    -4.461    -4.519    -0.058
   MgF+                  1.857e-006  1.632e-006    -5.731    -5.787    -0.056
   CaF+                  3.118e-007  2.740e-007    -6.506    -6.562    -0.056
   NaF                   9.359e-008  9.397e-008    -7.029    -7.027     0.002
   HF                    2.540e-009  2.550e-009    -8.595    -8.593     0.002
   HF2-                  3.188e-013  2.801e-013   -12.496   -12.553    -0.056
H(0)            6.004e-026
   H2                    3.002e-026  3.014e-026   -25.523   -25.521     0.002
I               2.681e-007
   I-                    2.681e-007  2.356e-007    -6.572    -6.628    -0.056
K               2.438e-004
   K+                    2.435e-004  2.132e-004    -3.614    -3.671    -0.058
   KSO4-                 3.004e-007  2.640e-007    -6.522    -6.578    -0.056
   KOH                   1.167e-011  1.171e-011   -10.933   -10.931     0.002
Li              5.481e-006
   Li+                   5.476e-006  4.849e-006    -5.262    -5.314    -0.053
   LiSO4-                4.774e-009  4.195e-009    -8.321    -8.377    -0.056
   LiOH                  1.753e-012  1.760e-012   -11.756   -11.755     0.002
Mg              1.592e-003
   Mg+2                  1.499e-003  9.211e-004    -2.824    -3.036    -0.212
   MgHCO3+               5.283e-005  4.642e-005    -4.277    -4.333    -0.056
   MgSO4                 3.582e-005  3.597e-005    -4.446    -4.444     0.002
   MgCO3                 2.246e-006  2.255e-006    -5.649    -5.647     0.002
   MgF+                  1.857e-006  1.632e-006    -5.731    -5.787    -0.056
   MgOH+                 3.278e-008  2.880e-008    -7.484    -7.541    -0.056
N(-3)           2.172e-005
   NH4+                  2.156e-005  1.878e-005    -4.666    -4.726    -0.060
   NH3                   1.048e-007  1.052e-007    -6.980    -6.978     0.002
   NH4SO4-               5.456e-008  4.795e-008    -7.263    -7.319    -0.056
Na              6.143e-003
   Na+                   6.123e-003  5.390e-003    -2.213    -2.268    -0.055
   NaHCO3                1.333e-005  1.338e-005    -4.875    -4.873     0.002
   NaSO4-                5.837e-006  5.130e-006    -5.234    -5.290    -0.056
   NaCO3-                2.307e-007  2.027e-007    -6.637    -6.693    -0.056
   NaF                   9.359e-008  9.397e-008    -7.029    -7.027     0.002
   NaOH                  5.619e-010  5.641e-010    -9.250    -9.249     0.002
O(0)            0.000e+000
   O2                    0.000e+000  0.000e+000   -43.519   -43.517     0.002
S(6)            4.162e-004
   SO4-2                 3.286e-004  1.982e-004    -3.483    -3.703    -0.220
   CaSO4                 4.494e-005  4.512e-005    -4.347    -4.346     0.002
   MgSO4                 3.582e-005  3.597e-005    -4.446    -4.444     0.002
   NaSO4-                5.837e-006  5.130e-006    -5.234    -5.290    -0.056
   SrSO4                 5.796e-007  5.819e-007    -6.237    -6.235     0.002
   KSO4-                 3.004e-007  2.640e-007    -6.522    -6.578    -0.056
   NH4SO4-               5.456e-008  4.795e-008    -7.263    -7.319    -0.056
   BaSO4                 3.174e-008  3.187e-008    -7.498    -7.497     0.002
   LiSO4-                4.774e-009  4.195e-009    -8.321    -8.377    -0.056
   HSO4-                 1.203e-009  1.057e-009    -8.920    -8.976    -0.056
   CaHSO4+               1.757e-011  1.544e-011   -10.755   -10.811    -0.056
Sr              2.833e-005
   Sr+2                  2.673e-005  1.630e-005    -4.573    -4.788    -0.215
   SrHCO3+               9.945e-007  8.784e-007    -6.002    -6.056    -0.054
   SrSO4                 5.796e-007  5.819e-007    -6.237    -6.235     0.002
   SrCO3                 2.422e-008  2.431e-008    -7.616    -7.614     0.002
   SrOH+                 1.502e-011  1.325e-011   -10.823   -10.878    -0.055

------------------------------Saturation indices-------------------------------

	Phase               SI log IAP  log KT

	Anhydrite        -2.28   -6.62   -4.34  CaSO4
	Aragonite        -0.17   -8.46   -8.30  CaCO3
	Barite           -0.12  -10.20  -10.08  BaSO4
	Calcite          -0.02   -8.46   -8.45  CaCO3
	Celestite        -1.87   -8.49   -6.62  SrSO4
	CO2(g)           -1.78   -3.16   -1.39  CO2
	Dolomite         -0.11  -17.04  -16.93  CaMg(CO3)2
	Fluorite         -1.27  -11.95  -10.68  CaF2
	Gypsum           -2.04   -6.62   -4.58  CaSO4:2H2O
	H2(g)           -22.40  -25.52   -3.12  H2
	H2O(g)           -1.68   -0.00    1.68  H2O
	Halite           -6.00   -4.43    1.57  NaCl
	NaBr             -7.25   -7.25    0.00  NaBr
	NH3(g)           -8.88   -6.98    1.91  NH3
	O2(g)           -40.68  -43.52   -2.84  O2
	Strontianite     -1.06  -10.33   -9.27  SrCO3
	Witherite        -3.46  -12.04   -8.58  BaCO3

Initial solution 7.	 02S-05E-08 ABB 1  Johnston County RWD 3 Well 1 

-----------------------------Solution composition------------------------------

	Elements           Molality       Moles

	Alkalinity       6.557e-003  6.557e-003
	Ba               3.278e-007  3.278e-007
	Br               6.260e-007  6.260e-007
	Ca               1.995e-003  1.995e-003
	Cl               9.214e-005  9.214e-005
	F                1.053e-005  1.053e-005
	I                3.153e-008  3.153e-008
	K                2.162e-005  2.162e-005
	Li               1.442e-007  1.442e-007
	Mg               1.420e-003  1.420e-003
	N(-3)            2.857e-006  2.857e-006
	N(5)             4.279e-005  4.279e-005
	Na               1.661e-004  1.661e-004
	S(6)             1.222e-004  1.222e-004
	Sr               9.477e-007  9.477e-007

----------------------------Description of solution----------------------------

                                       pH  =   6.970    
                                       pe  =   4.000    
       Specific Conductance (uS/cm, 25 oC) = 613
                          Density (g/cm3)  =   0.99937
                        Activity of water  =   1.000
                           Ionic strength  =  1.010e-002
                       Mass of water (kg)  =  1.000e+000
                    Total carbon (mol/kg)  =  8.139e-003
                       Total CO2 (mol/kg)  =  8.139e-003
                      Temperature (deg C)  =  16.100
                  Electrical balance (eq)  =  7.561e-005
 Percent error, 100*(Cat-|An|)/(Cat+|An|)  =   0.56
                               Iterations  =   9
                                  Total H  = 1.110190e+002
                                  Total O  = 5.552966e+001

---------------------------------Redox couples---------------------------------

	Redox couple             pe  Eh (volts)

	N(-3)/N(5)           6.8467      0.3929

----------------------------Distribution of species----------------------------

                                                   Log       Log         Log 
   Species                 Molality    Activity  Molality  Activity     Gamma

   H+                    1.172e-007  1.072e-007    -6.931    -6.970    -0.039
   OH-                   5.117e-008  4.611e-008    -7.291    -7.336    -0.045
   H2O                   5.551e+001  9.998e-001     1.744    -0.000     0.000
Ba              3.278e-007
   Ba+2                  3.112e-007  2.088e-007    -6.507    -6.680    -0.173
   BaHCO3+               9.691e-009  8.751e-009    -8.014    -8.058    -0.044
   BaSO4                 6.739e-009  6.755e-009    -8.171    -8.170     0.001
   BaCO3                 1.864e-010  1.868e-010    -9.730    -9.729     0.001
   BaOH+                 7.310e-014  6.601e-014   -13.136   -13.180    -0.044
Br              6.260e-007
   Br-                   6.260e-007  5.632e-007    -6.203    -6.249    -0.046
C(4)            8.139e-003
   HCO3-                 6.386e-003  5.786e-003    -2.195    -2.238    -0.043
   CO2                   1.590e-003  1.594e-003    -2.798    -2.797     0.001
   CaHCO3+               8.791e-005  7.965e-005    -4.056    -4.099    -0.043
   MgHCO3+               6.605e-005  5.964e-005    -4.180    -4.224    -0.044
   CaCO3                 3.809e-006  3.818e-006    -5.419    -5.418     0.001
   CO3-2                 3.073e-006  2.071e-006    -5.512    -5.684    -0.171
   MgCO3                 1.563e-006  1.566e-006    -5.806    -5.805     0.001
   NaHCO3                4.859e-007  4.870e-007    -6.313    -6.312     0.001
   SrHCO3+               4.358e-008  3.949e-008    -7.361    -7.404    -0.043
   BaHCO3+               9.691e-009  8.751e-009    -8.014    -8.058    -0.044
   NaCO3-                4.024e-009  3.634e-009    -8.395    -8.440    -0.044
   SrCO3                 6.136e-010  6.150e-010    -9.212    -9.211     0.001
   BaCO3                 1.864e-010  1.868e-010    -9.730    -9.729     0.001
Ca              1.995e-003
   Ca+2                  1.889e-003  1.272e-003    -2.724    -2.896    -0.172
   CaHCO3+               8.791e-005  7.965e-005    -4.056    -4.099    -0.043
   CaSO4                 1.500e-005  1.504e-005    -4.824    -4.823     0.001
   CaCO3                 3.809e-006  3.818e-006    -5.419    -5.418     0.001
   CaF+                  8.870e-008  8.009e-008    -7.052    -7.096    -0.044
   CaOH+                 2.181e-009  1.970e-009    -8.661    -8.706    -0.044
   CaHSO4+               9.448e-012  8.531e-012   -11.025   -11.069    -0.044
Cl              9.214e-005
   Cl-                   9.214e-005  8.305e-005    -4.036    -4.081    -0.045
F               1.053e-005
   F-                    9.937e-006  8.954e-006    -5.003    -5.048    -0.045
   MgF+                  5.042e-007  4.553e-007    -6.297    -6.342    -0.044
   CaF+                  8.870e-008  8.009e-008    -7.052    -7.096    -0.044
   HF                    1.227e-009  1.230e-009    -8.911    -8.910     0.001
   NaF                   7.694e-010  7.712e-010    -9.114    -9.113     0.001
   HF2-                  4.323e-014  3.903e-014   -13.364   -13.409    -0.044
H(0)            1.777e-025
   H2                    8.885e-026  8.906e-026   -25.051   -25.050     0.001
I               3.153e-008
   I-                    3.153e-008  2.848e-008    -7.501    -7.546    -0.044
K               2.162e-005
   K+                    2.161e-005  1.948e-005    -4.665    -4.710    -0.045
   KSO4-                 8.338e-009  7.529e-009    -8.079    -8.123    -0.044
   KOH                   6.288e-013  6.302e-013   -12.201   -12.200     0.001
Li              1.442e-007
   Li+                   1.441e-007  1.308e-007    -6.841    -6.883    -0.042
   LiSO4-                4.082e-011  3.686e-011   -10.389   -10.433    -0.044
   LiOH                  2.790e-014  2.796e-014   -13.554   -13.553     0.001
Mg              1.420e-003
   Mg+2                  1.341e-003  9.088e-004    -2.873    -3.042    -0.169
   MgHCO3+               6.605e-005  5.964e-005    -4.180    -4.224    -0.044
   MgSO4                 1.083e-005  1.086e-005    -4.965    -4.964     0.001
   MgCO3                 1.563e-006  1.566e-006    -5.806    -5.805     0.001
   MgF+                  5.042e-007  4.553e-007    -6.297    -6.342    -0.044
   MgOH+                 1.489e-008  1.345e-008    -7.827    -7.871    -0.044
N(-3)           2.857e-006
   NH4+                  2.848e-006  2.558e-006    -5.546    -5.592    -0.047
   NH3                   7.094e-009  7.110e-009    -8.149    -8.148     0.001
   NH4SO4-               2.356e-009  2.127e-009    -8.628    -8.672    -0.044
N(5)            4.279e-005
   NO3-                  4.279e-005  3.849e-005    -4.369    -4.415    -0.046
Na              1.661e-004
[...]
                                  Total H  = 1.110124e+002
                                  Total O  = 5.550622e+001

----------------------------Distribution of species----------------------------

                                                   Log       Log         Log 
   Species                 Molality    Activity  Molality  Activity     Gamma

   H+                    1.001e-006  1.000e-006    -5.999    -6.000    -0.001
   OH-                   1.002e-008  1.001e-008    -7.999    -8.000    -0.001
   H2O                   5.551e+001  1.000e+000     1.744    -0.000     0.000
C(-4)           0.000e+000
   CH4                   0.000e+000  0.000e+000   -61.262   -61.262     0.000
C(4)            3.217e-006
   CO2                   2.226e-006  2.226e-006    -5.653    -5.653     0.000
   HCO3-                 9.911e-007  9.899e-007    -6.004    -6.004    -0.001
   CO3-2                 4.664e-011  4.642e-011   -10.331   -10.333    -0.002
H(0)            1.416e-023
   H2                    7.079e-024  7.079e-024   -23.150   -23.150     0.000
O(0)            0.000e+000
   O2                    0.000e+000  0.000e+000   -46.080   -46.080     0.000

------------------------------Saturation indices-------------------------------

	Phase               SI log IAP  log KT

	CH2O            -33.46  -33.46    0.00  CH2O
	CH4(g)          -58.40  -61.26   -2.86  CH4
	CO2(g)           -4.18   -5.65   -1.47  CO2
	H2(g)           -20.00  -23.15   -3.15  H2
	H2O(g)           -1.51   -0.00    1.51  H2O
	O2(g)           -43.19  -46.08   -2.89  O2

------------------
End of simulation.
------------------

------------------------------------
Reading input data for simulation 3.
------------------------------------

	USE solution 32
	EQUILIBRIUM_PHASES
		Calcite	0
		CO2(g)	-1.7
		O2(g) -15
	SAVE solution 33
	END
-----------------------------------------
Beginning of batch-reaction calculations.
-----------------------------------------

Reaction step 1.

Using solution 32.	 Precipitation 
Using pure phase assemblage 1.	

-------------------------------Phase assemblage--------------------------------

                                                      Moles in assemblage
Phase                  SI log IAP  log KT      Initial       Final       Delta

Calcite              0.00   -8.44   -8.44   1.000e+001  9.998e+000 -2.412e-003
CO2(g)              -1.70   -3.07   -1.37   1.000e+001  9.997e+000 -3.237e-003
O2(g)              -15.00  -17.83   -2.83   1.000e+001  1.000e+001 -1.474e-013

-----------------------------Solution composition------------------------------

	Elements           Molality       Moles

	C                5.650e-003  5.649e-003
	Ca               2.512e-003  2.512e-003
	Cl               7.000e-005  7.000e-005
	K                1.000e-005  1.000e-005
	Mg               2.000e-005  2.000e-005
	Na               6.000e-005  6.000e-005
	S                1.300e-004  1.300e-004

----------------------------Description of solution----------------------------

                                       pH  =   7.105      Charge balance
                                       pe  =  10.638      Adjusted to redox equilibrium
       Specific Conductance (uS/cm, 25 oC) = 472
                          Density (g/cm3)  =   0.99912
                        Activity of water  =   1.000
                           Ionic strength  =  7.512e-003
                       Mass of water (kg)  =  1.000e+000
                 Total alkalinity (eq/kg)  =  4.804e-003
                       Total CO2 (mol/kg)  =  5.650e-003
                      Temperature (deg C)  =  17.000
                  Electrical balance (eq)  =  4.227e-013
 Percent error, 100*(Cat-|An|)/(Cat+|An|)  =   0.00
                               Iterations  =  17
                                  Total H  = 1.110125e+002
                                  Total O  = 5.552045e+001

----------------------------Distribution of species----------------------------

                                                   Log       Log         Log 
   Species                 Molality    Activity  Molality  Activity     Gamma

   H+                    8.500e-008  7.847e-008    -7.071    -7.105    -0.035
   OH-                   7.432e-008  6.784e-008    -7.129    -7.169    -0.040
   H2O                   5.551e+001  9.999e-001     1.744    -0.000     0.000
C(-4)           0.000e+000
   CH4                   0.000e+000  0.000e+000  -119.523  -119.522     0.001
C(4)            5.650e-003
   HCO3-                 4.699e-003  4.307e-003    -2.328    -2.366    -0.038
   CO2                   8.539e-004  8.553e-004    -3.069    -3.068     0.001
   CaHCO3+               8.766e-005  8.036e-005    -4.057    -4.095    -0.038
   CaCO3                 5.328e-006  5.337e-006    -5.273    -5.273     0.001
   CO3-2                 3.049e-006  2.153e-006    -5.516    -5.667    -0.151
   MgHCO3+               7.240e-007  6.619e-007    -6.140    -6.179    -0.039
   NaHCO3                1.324e-007  1.326e-007    -6.878    -6.877     0.001
   MgCO3                 2.451e-008  2.455e-008    -7.611    -7.610     0.001
   NaCO3-                1.586e-009  1.450e-009    -8.800    -8.839    -0.039
Ca              2.512e-003
   Ca+2                  2.396e-003  1.691e-003    -2.621    -2.772    -0.151
   CaHCO3+               8.766e-005  8.036e-005    -4.057    -4.095    -0.038
   CaSO4                 2.334e-005  2.338e-005    -4.632    -4.631     0.001
   CaCO3                 5.328e-006  5.337e-006    -5.273    -5.273     0.001
   CaOH+                 3.910e-009  3.575e-009    -8.408    -8.447    -0.039
   CaHSO4+               1.073e-011  9.805e-012   -10.970   -11.009    -0.039
Cl              7.000e-005
   Cl-                   7.000e-005  6.391e-005    -4.155    -4.194    -0.040
H(0)            4.995e-039
   H2                    2.497e-039  2.502e-039   -38.603   -38.602     0.001
K               1.000e-005
   K+                    9.996e-006  9.126e-006    -5.000    -5.040    -0.040
   KSO4-                 4.549e-009  4.158e-009    -8.342    -8.381    -0.039
   KOH                   4.025e-013  4.032e-013   -12.395   -12.394     0.001
Mg              2.000e-005
   Mg+2                  1.906e-005  1.352e-005    -4.720    -4.869    -0.149
   MgHCO3+               7.240e-007  6.619e-007    -6.140    -6.179    -0.039
   MgSO4                 1.916e-007  1.919e-007    -6.718    -6.717     0.001
   MgCO3                 2.451e-008  2.455e-008    -7.611    -7.610     0.001
   MgOH+                 3.256e-010  2.976e-010    -9.487    -9.526    -0.039
Na              6.000e-005
   Na+                   5.985e-005  5.476e-005    -4.223    -4.262    -0.039
   NaHCO3                1.324e-007  1.326e-007    -6.878    -6.877     0.001
   NaSO4-                2.133e-008  1.950e-008    -7.671    -7.710    -0.039
   NaCO3-                1.586e-009  1.450e-009    -8.800    -8.839    -0.039
   NaOH                  4.602e-012  4.610e-012   -11.337   -11.336     0.001
O(0)            2.956e-018
   O2                    1.478e-018  1.480e-018   -17.830   -17.830     0.001
S(-2)           0.000e+000
   HS-                   0.000e+000  0.000e+000  -118.275  -118.315    -0.040
   H2S                   0.000e+000  0.000e+000  -118.367  -118.366     0.001
   S-2                   0.000e+000  0.000e+000  -124.219  -124.372    -0.153
S(6)            1.300e-004
   SO4-2                 1.064e-004  7.485e-005    -3.973    -4.126    -0.153
   CaSO4                 2.334e-005  2.338e-005    -4.632    -4.631     0.001
   MgSO4                 1.916e-007  1.919e-007    -6.718    -6.717     0.001
   NaSO4-                2.133e-008  1.950e-008    -7.671    -7.710    -0.039
   KSO4-                 4.549e-009  4.158e-009    -8.342    -8.381    -0.039
   HSO4-                 5.277e-010  4.824e-010    -9.278    -9.317    -0.039
   CaHSO4+               1.073e-011  9.805e-012   -10.970   -11.009    -0.039

------------------------------Saturation indices-------------------------------

	Phase               SI log IAP  log KT

	Anhydrite        -2.56   -6.90   -4.34  CaSO4
	Aragonite        -0.15   -8.44   -8.29  CaCO3
	Calcite           0.00   -8.44   -8.44  CaCO3
	CH2O            -61.29  -61.29    0.00  CH2O
	CH4(g)         -116.73 -119.52   -2.79  CH4
	CO2(g)           -1.70   -3.07   -1.37  CO2
	Dolomite         -2.08  -18.98  -16.90  CaMg(CO3)2
	Gypsum           -2.32   -6.90   -4.58  CaSO4:2H2O
	H2(g)           -35.49  -38.60   -3.11  H2
	H2O(g)           -1.72   -0.00    1.72  H2O
	H2S(g)         -117.46 -118.37   -0.90  H2S
	Halite          -10.02   -8.46    1.56  NaCl
	O2(g)           -15.00  -17.83   -2.83  O2
	Sulfur          -87.95  -82.88    5.07  S

------------------
End of simulation.
------------------

------------------------------------
Reading input data for simulation 4.
------------------------------------

	INVERSE_MODELING 1 Vendome Well
	    lon_netpath Vendome
	    pat_netpath Vendome
	    solutions      34    33   31       15
	    uncertainty    0.1
	    phases
	        Calcite                     13C   0      4        14C   0      1
	        Dolomite                    13C   0      4        14C   0      1
	        Gypsum
	        Albite                dis
	        Chalcedony
	        Kaolinite
	        CO2(g)		      dis   13C   -17    5        14C   100    1
		Halite
		NaBr
	    balances
	        Cl          
	        I           
	        Br  
	    minimal
	    mineral_water     false
	END
---------------------------------------------
Beginning of inverse modeling 1 calculations.
---------------------------------------------

Using Cl1 standard precision optimization routine.
WARNING: K is included in solution 33, but is not included as a mass-balance constraint.
WARNING: Ba is included in solution 31, but is not included as a mass-balance constraint.
WARNING: F is included in solution 31, but is not included as a mass-balance constraint.
WARNING: K is included in solution 31, but is not included as a mass-balance constraint.
WARNING: Li is included in solution 31, but is not included as a mass-balance constraint.
WARNING: N(-3) is included in solution 31, but is not included as a mass-balance constraint.
WARNING: Sr is included in solution 31, but is not included as a mass-balance constraint.
WARNING: Ba is included in solution 15, but is not included as a mass-balance constraint.
WARNING: F is included in solution 15, but is not included as a mass-balance constraint.
WARNING: K is included in solution 15, but is not included as a mass-balance constraint.
WARNING: Li is included in solution 15, but is not included as a mass-balance constraint.
WARNING: N(-3) is included in solution 15, but is not included as a mass-balance constraint.
WARNING: Sr is included in solution 15, but is not included as a mass-balance constraint.

Solution 34: 

                         Input          Delta    Input+Delta
             pH     6.000e+000  +  0.000e+000  =  6.000e+000
             Al     0.000e+000  +  0.000e+000  =  0.000e+000
     Alkalinity     0.000e+000  +  0.000e+000  =  0.000e+000
             Br     0.000e+000  +  0.000e+000  =  0.000e+000
          C(-4)     0.000e+000  +  0.000e+000  =  0.000e+000
           C(4)     3.217e-006  +  0.000e+000  =  3.217e-006
             Ca     0.000e+000  +  0.000e+000  =  0.000e+000
             Cl     0.000e+000  +  0.000e+000  =  0.000e+000
           H(0)     0.000e+000  +  0.000e+000  =  0.000e+000
              I     0.000e+000  +  0.000e+000  =  0.000e+000
             Mg     0.000e+000  +  0.000e+000  =  0.000e+000
             Na     0.000e+000  +  0.000e+000  =  0.000e+000
           O(0)     0.000e+000  +  0.000e+000  =  0.000e+000
          S(-2)     0.000e+000  +  0.000e+000  =  0.000e+000
           S(6)     0.000e+000  +  0.000e+000  =  0.000e+000
             Si     0.000e+000  +  0.000e+000  =  0.000e+000

Solution 31:  01S-02E-01 DCB 1 Harrison, Nace 

                         Input          Delta    Input+Delta
             pH     6.500e+000  +  0.000e+000  =  6.500e+000
             Al     0.000e+000  +  0.000e+000  =  0.000e+000
     Alkalinity     3.767e-003  +  3.762e-004  =  4.143e-003
             Br     2.866e-003  +  1.225e-004  =  2.989e-003
          C(-4)     0.000e+000  +  0.000e+000  =  0.000e+000
           C(4)     4.343e-003  +  4.343e-004  =  4.777e-003
             Ca     9.843e-002  + -9.843e-003  =  8.859e-002
             Cl     1.682e+000  +  1.849e-002  =  1.700e+000
           H(0)     0.000e+000  +  0.000e+000  =  0.000e+000
              I     5.129e-005  +  4.802e-006  =  5.610e-005
             Mg     5.499e-002  + -5.499e-003  =  4.949e-002
             Na     1.301e+000  +  1.301e-001  =  1.431e+000
           O(0)     0.000e+000  +  0.000e+000  =  0.000e+000
          S(-2)     0.000e+000  +  0.000e+000  =  0.000e+000
           S(6)     2.053e-004  +  0.000e+000  =  2.053e-004
             Si     0.000e+000  +  0.000e+000  =  0.000e+000

Solution 15:  01S-03E-03 ABA 1        Vendome Well 

                         Input          Delta    Input+Delta
             pH     7.140e+000  +  0.000e+000  =  7.140e+000
             Al     0.000e+000  +  0.000e+000  =  0.000e+000
     Alkalinity     5.563e-003  + -5.563e-004  =  5.006e-003
             Br     2.607e-005  +  0.000e+000  =  2.607e-005
          C(-4)     0.000e+000  +  0.000e+000  =  0.000e+000
           C(4)     6.364e-003  + -6.361e-004  =  5.728e-003
             Ca     2.163e-003  +  2.163e-004  =  2.380e-003
             Cl     1.577e-002  + -9.446e-004  =  1.483e-002
           H(0)     0.000e+000  +  0.000e+000  =  0.000e+000
              I     4.892e-007  +  0.000e+000  =  4.892e-007
             Mg     1.539e-003  +  1.350e-004  =  1.674e-003
             Na     1.374e-002  + -1.258e-003  =  1.248e-002
           O(0)     0.000e+000  +  0.000e+000  =  0.000e+000
          S(-2)     0.000e+000  +  0.000e+000  =  0.000e+000
           S(6)     3.663e-004  +  0.000e+000  =  3.663e-004
             Si     0.000e+000  +  0.000e+000  =  0.000e+000

Solution fractions:                   Minimum        Maximum
   Solution  34     9.913e-001     0.000e+000     0.000e+000
   Solution  33     0.000e+000     0.000e+000     0.000e+000
   Solution  31     8.721e-003     0.000e+000     0.000e+000
   Solution  15     1.000e+000     0.000e+000     0.000e+000

Phase mole transfers:                 Minimum        Maximum
       Dolomite     1.243e-003     0.000e+000     0.000e+000   CaMg(CO3)2
         Gypsum     3.645e-004     0.000e+000     0.000e+000   CaSO4:2H2O
         CO2(g)     3.198e-003     0.000e+000     0.000e+000   CO2

Redox mole transfers:    

Sum of residuals (epsilons in documentation):        5.448e+000
Sum of delta/uncertainty limit:                      1.186e+001
Maximum fractional error in element concentration:   1.000e-001

Model contains minimum number of phases.
===============================================================================


Solution 33: Solution after simulation 3.

                         Input          Delta    Input+Delta
             pH     7.105e+000  +  0.000e+000  =  7.105e+000
             Al     0.000e+000  +  0.000e+000  =  0.000e+000
     Alkalinity     4.804e-003  + -1.000e-005  =  4.794e-003
             Br     0.000e+000  +  0.000e+000  =  0.000e+000
          C(-4)     0.000e+000  +  0.000e+000  =  0.000e+000
           C(4)     5.649e-003  + -1.174e-005  =  5.638e-003
             Ca     2.512e-003  +  0.000e+000  =  2.512e-003
             Cl     7.000e-005  +  0.000e+000  =  7.000e-005
           H(0)     0.000e+000  +  0.000e+000  =  0.000e+000
              I     0.000e+000  +  0.000e+000  =  0.000e+000
             Mg     2.000e-005  +  0.000e+000  =  2.000e-005
             Na     6.000e-005  +  0.000e+000  =  6.000e-005
           O(0)     0.000e+000  +  0.000e+000  =  0.000e+000
          S(-2)     0.000e+000  +  0.000e+000  =  0.000e+000
           S(6)     1.300e-004  +  0.000e+000  =  1.300e-004
             Si     0.000e+000  +  0.000e+000  =  0.000e+000

Solution 31:  01S-02E-01 DCB 1 Harrison, Nace 

                         Input          Delta    Input+Delta
             pH     6.500e+000  +  0.000e+000  =  6.500e+000
             Al     0.000e+000  +  0.000e+000  =  0.000e+000
     Alkalinity     3.767e-003  +  0.000e+000  =  3.767e-003
             Br     2.866e-003  +  1.095e-004  =  2.976e-003
          C(-4)     0.000e+000  +  0.000e+000  =  0.000e+000
           C(4)     4.343e-003  +  0.000e+000  =  4.343e-003
             Ca     9.843e-002  + -9.843e-003  =  8.859e-002
             Cl     1.682e+000  +  1.888e-002  =  1.700e+000
           H(0)     0.000e+000  +  0.000e+000  =  0.000e+000
              I     5.129e-005  +  4.557e-006  =  5.585e-005
             Mg     5.499e-002  + -5.499e-003  =  4.949e-002
             Na     1.301e+000  +  1.301e-001  =  1.431e+000
           O(0)     0.000e+000  +  0.000e+000  =  0.000e+000
          S(-2)     0.000e+000  +  0.000e+000  =  0.000e+000
           S(6)     2.053e-004  +  0.000e+000  =  2.053e-004
             Si     0.000e+000  +  0.000e+000  =  0.000e+000

Solution 15:  01S-03E-03 ABA 1        Vendome Well 

                         Input          Delta    Input+Delta
             pH     7.140e+000  +  0.000e+000  =  7.140e+000
             Al     0.000e+000  +  0.000e+000  =  0.000e+000
     Alkalinity     5.563e-003  + -5.421e-004  =  5.021e-003
             Br     2.607e-005  +  0.000e+000  =  2.607e-005
          C(-4)     0.000e+000  +  0.000e+000  =  0.000e+000
           C(4)     6.364e-003  + -6.199e-004  =  5.744e-003
             Ca     2.163e-003  +  2.163e-004  =  2.380e-003
             Cl     1.577e-002  + -8.069e-004  =  1.496e-002
           H(0)     0.000e+000  +  0.000e+000  =  0.000e+000
              I     4.892e-007  +  0.000e+000  =  4.892e-007
             Mg     1.539e-003  +  1.539e-004  =  1.693e-003
             Na     1.374e-002  + -1.144e-003  =  1.260e-002
           O(0)     0.000e+000  +  0.000e+000  =  0.000e+000
          S(-2)     0.000e+000  +  0.000e+000  =  0.000e+000
           S(6)     3.663e-004  +  0.000e+000  =  3.663e-004
             Si     0.000e+000  +  0.000e+000  =  0.000e+000

Solution fractions:                   Minimum        Maximum
   Solution  34     0.000e+000     0.000e+000     0.000e+000
   Solution  33     9.913e-001     0.000e+000     0.000e+000
   Solution  31     8.759e-003     0.000e+000     0.000e+000
   Solution  15     1.000e+000     0.000e+000     0.000e+000

Phase mole transfers:                 Minimum        Maximum
        Calcite    -2.362e-003     0.000e+000     0.000e+000   CaCO3
       Dolomite     1.240e-003     0.000e+000     0.000e+000   CaMg(CO3)2
         Gypsum     2.356e-004     0.000e+000     0.000e+000   CaSO4:2H2O

Redox mole transfers:    

Sum of residuals (epsilons in documentation):        5.372e+000
Sum of delta/uncertainty limit:                      9.717e+000
Maximum fractional error in element concentration:   1.000e-001

Model contains minimum number of phases.
===============================================================================


Summary of inverse modeling:

	Number of models found: 2
	Number of minimal models found: 2
	Number of infeasible sets of phases saved: 17
	Number of calls to cl1: 36
------------------
End of simulation.
------------------

------------------------------------
Reading input data for simulation 5.
------------------------------------

-----------
End of run.
-----------

