   Input file: np.test
  Output file: np.test.out
Database file: ../database/phreeqc.dat

------------------
Reading data base.
------------------

	SOLUTION_MASTER_SPECIES
	SOLUTION_SPECIES
	PHASES
	EXCHANGE_MASTER_SPECIES
	EXCHANGE_SPECIES
	SURFACE_MASTER_SPECIES
	SURFACE_SPECIES
	RATES
	END
------------------------------------
Reading input data for simulation 1.
------------------------------------

	DATABASE ../database/phreeqc.dat
	knobs
		logfile
	PRINT
		status false
	SOLUTION 1
		units 	mmol/l
		pH 	6.2
		Si	0.273
		Ca	0.078
		Mg	0.029
		Na	0.134
		K	0.028
		Alkalinity	0.328
		S(6)	0.010
		Cl	0.014
	SOLUTION 2
		units 	mmol/l
		pH	6.8
		Si	0.41
		Ca	0.26
		Mg	0.071
		Na	0.259
		K	0.04
		Alkalinity	0.895
		S(6)		0.025
		Cl		0.03
	INVERSE_MODELING 1
		solutions 1 2
		uncertainty 0.05
		phases
			Halite
			Gypsum
			Kaolinite   	pre
			Ca-montmorillonite   pre
			CO2(g)
			Calcite
			Chalcedony	pre
			Biotite    	dis
			Plagioclase     dis
	PHASES
		Halite
		NaCl = Na+ + Cl-
		log_k	0.0
		Biotite
		KMg3AlSi3O10(OH)2 + 6H+ + 4H2O = K+ + 3Mg+2 + Al(OH)4- + 3H4SiO4 
		log_k	0.0
		Plagioclase
		Na0.62Ca0.37Al1.38Si2.625O8 + 5.5 H+ + 2.5H2O = 0.62Na+ + 0.37Ca+2 + 1.38Al+3 + 2.625H4SiO4
		log_k	0.0
		H2O(g)
		H2O = H2O
		log_k	0.0
		NaX
		NaX = Na+ + X- 
		log_k	0.0
		CaX2
		CaX2 = Ca+2 + 2X- 
		log_k	0.0
	END
-------------------------------------------
Beginning of initial solution calculations.
-------------------------------------------

Initial solution 1.	

-----------------------------Solution composition------------------------------

	Elements           Molality       Moles

	Alkalinity       3.280e-004  3.280e-004
	Ca               7.800e-005  7.800e-005
	Cl               1.400e-005  1.400e-005
	K                2.800e-005  2.800e-005
	Mg               2.900e-005  2.900e-005
	Na               1.340e-004  1.340e-004
	S(6)             1.000e-005  1.000e-005
	Si               2.730e-004  2.730e-004

----------------------------Description of solution----------------------------

                                       pH  =   6.200    
                                       pe  =   4.000    
       Specific Conductance (uS/cm, 25 oC) = 37
                          Density (g/cm3)  =   0.99707
                        Activity of water  =   1.000
                           Ionic strength  =  4.851e-004
                       Mass of water (kg)  =  1.000e+000
                    Total carbon (mol/kg)  =  7.825e-004
                       Total CO2 (mol/kg)  =  7.825e-004
                      Temperature (deg C)  =  25.000
                  Electrical balance (eq)  =  1.400e-005
 Percent error, 100*(Cat-|An|)/(Cat+|An|)  =   1.90
                               Iterations  =   7
                                  Total H  = 1.110139e+002
                                  Total O  = 5.550924e+001

----------------------------Distribution of species----------------------------

                                                   Log       Log         Log 
   Species                 Molality    Activity  Molality  Activity     Gamma

   H+                    6.464e-007  6.310e-007    -6.189    -6.200    -0.011
   OH-                   1.627e-008  1.587e-008    -7.789    -7.800    -0.011
   H2O                   5.551e+001  1.000e+000     1.744    -0.000     0.000
C(4)            7.825e-004
   CO2                   4.540e-004  4.540e-004    -3.343    -3.343     0.000
   HCO3-                 3.281e-004  3.200e-004    -3.484    -3.495    -0.011
   CaHCO3+               2.940e-007  2.868e-007    -6.532    -6.542    -0.011
   MgHCO3+               1.003e-007  9.783e-008    -6.999    -7.010    -0.011
   CO3-2                 2.628e-008  2.379e-008    -7.580    -7.624    -0.043
   NaHCO3                2.351e-008  2.352e-008    -7.629    -7.629     0.000
   CaCO3                 2.806e-009  2.807e-009    -8.552    -8.552     0.000
   MgCO3                 5.929e-010  5.930e-010    -9.227    -9.227     0.000
   NaCO3-                5.935e-011  5.788e-011   -10.227   -10.237    -0.011
Ca              7.800e-005
   Ca+2                  7.758e-005  7.023e-005    -4.110    -4.153    -0.043
   CaHCO3+               2.940e-007  2.868e-007    -6.532    -6.542    -0.011
   CaSO4                 1.244e-007  1.245e-007    -6.905    -6.905     0.000
   CaCO3                 2.806e-009  2.807e-009    -8.552    -8.552     0.000
   CaOH+                 1.894e-011  1.847e-011   -10.723   -10.733    -0.011
   CaHSO4+               4.717e-013  4.600e-013   -12.326   -12.337    -0.011
Cl              1.400e-005
   Cl-                   1.400e-005  1.365e-005    -4.854    -4.865    -0.011
H(0)            5.636e-024
   H2                    2.818e-024  2.818e-024   -23.550   -23.550     0.000
K               2.800e-005
   K+                    2.800e-005  2.730e-005    -4.553    -4.564    -0.011
   KSO4-                 1.747e-009  1.704e-009    -8.758    -8.769    -0.011
   KOH                   1.500e-013  1.500e-013   -12.824   -12.824     0.000
Mg              2.900e-005
   Mg+2                  2.885e-005  2.612e-005    -4.540    -4.583    -0.043
   MgHCO3+               1.003e-007  9.783e-008    -6.999    -7.010    -0.011
   MgSO4                 5.438e-008  5.439e-008    -7.265    -7.264     0.000
   MgCO3                 5.929e-010  5.930e-010    -9.227    -9.227     0.000
   MgOH+                 1.541e-010  1.503e-010    -9.812    -9.823    -0.011
Na              1.340e-004
   Na+                   1.340e-004  1.307e-004    -3.873    -3.884    -0.011
   NaHCO3                2.351e-008  2.352e-008    -7.629    -7.629     0.000
   NaSO4-                5.964e-009  5.816e-009    -8.224    -8.235    -0.011
   NaCO3-                5.935e-011  5.788e-011   -10.227   -10.237    -0.011
   NaOH                  1.368e-012  1.368e-012   -11.864   -11.864     0.000
O(0)            0.000e+000
   O2                    0.000e+000  0.000e+000   -45.280   -45.280     0.000
S(6)            1.000e-005
   SO4-2                 9.813e-006  8.882e-006    -5.008    -5.052    -0.043
   CaSO4                 1.244e-007  1.245e-007    -6.905    -6.905     0.000
   MgSO4                 5.438e-008  5.439e-008    -7.265    -7.264     0.000
   NaSO4-                5.964e-009  5.816e-009    -8.224    -8.235    -0.011
   KSO4-                 1.747e-009  1.704e-009    -8.758    -8.769    -0.011
   HSO4-                 5.587e-010  5.448e-010    -9.253    -9.264    -0.011
   CaHSO4+               4.717e-013  4.600e-013   -12.326   -12.337    -0.011
Si              2.730e-004
   H4SiO4                2.729e-004  2.730e-004    -3.564    -3.564     0.000
   H3SiO4-               6.541e-008  6.379e-008    -7.184    -7.195    -0.011
   H2SiO4-2              7.604e-015  6.877e-015   -14.119   -14.163    -0.044

------------------------------Saturation indices-------------------------------

	Phase               SI log IAP  log KT

	Anhydrite        -4.84   -9.20   -4.36  CaSO4
	Aragonite        -3.44  -11.78   -8.34  CaCO3
	Calcite          -3.30  -11.78   -8.48  CaCO3
	Chalcedony       -0.01   -3.56   -3.55  SiO2
	Chrysotile      -15.88   16.32   32.20  Mg3Si2O5(OH)4
	CO2(g)           -1.87   -3.34   -1.47  CO2
	Dolomite         -6.89  -23.98  -17.09  CaMg(CO3)2
	Gypsum           -4.62   -9.20   -4.58  CaSO4:2H2O
	H2(g)           -20.40  -23.55   -3.15  H2
	H2O(g)           -0.00   -0.00    0.00  H2O
	Halite           -8.75   -8.75    0.00  NaCl
	O2(g)           -42.39  -45.28   -2.89  O2
	Quartz            0.42   -3.56   -3.98  SiO2
	Sepiolite       -10.82    4.94   15.76  Mg2Si3O7.5OH:3H2O
	Sepiolite(d)    -13.72    4.94   18.66  Mg2Si3O7.5OH:3H2O
	SiO2(a)          -0.85   -3.56   -2.71  SiO2
	Talc            -12.20    9.20   21.40  Mg3Si4O10(OH)2

Initial solution 2.	

-----------------------------Solution composition------------------------------

	Elements           Molality       Moles

	Alkalinity       8.951e-004  8.951e-004
	Ca               2.600e-004  2.600e-004
	Cl               3.000e-005  3.000e-005
	K                4.000e-005  4.000e-005
	Mg               7.101e-005  7.101e-005
	Na               2.590e-004  2.590e-004
	S(6)             2.500e-005  2.500e-005
	Si               4.100e-004  4.100e-004

----------------------------Description of solution----------------------------

                                       pH  =   6.800    
                                       pe  =   4.000    
       Specific Conductance (uS/cm, 25 oC) = 95
                          Density (g/cm3)  =   0.99711
                        Activity of water  =   1.000
                           Ionic strength  =  1.313e-003
                       Mass of water (kg)  =  1.000e+000
                    Total carbon (mol/kg)  =  1.199e-003
                       Total CO2 (mol/kg)  =  1.199e-003
                      Temperature (deg C)  =  25.000
                  Electrical balance (eq)  = -1.400e-005
 Percent error, 100*(Cat-|An|)/(Cat+|An|)  =  -0.73
                               Iterations  =   6
                                  Total H  = 1.110150e+002
                                  Total O  = 5.551125e+001

----------------------------Distribution of species----------------------------

                                                   Log       Log         Log 
   Species                 Molality    Activity  Molality  Activity     Gamma

   H+                    1.647e-007  1.585e-007    -6.783    -6.800    -0.017
   OH-                   6.579e-008  6.316e-008    -7.182    -7.200    -0.018
   H2O                   5.551e+001  1.000e+000     1.744    -0.000     0.000
C(4)            1.199e-003
   HCO3-                 8.907e-004  8.559e-004    -3.050    -3.068    -0.017
   CO2                   3.049e-004  3.050e-004    -3.516    -3.516     0.000
   CaHCO3+               2.485e-006  2.387e-006    -5.605    -5.622    -0.017
   MgHCO3+               6.235e-007  5.987e-007    -6.205    -6.223    -0.018
   CO3-2                 2.971e-007  2.533e-007    -6.527    -6.596    -0.069
   NaHCO3                1.196e-007  1.197e-007    -6.922    -6.922     0.000
   CaCO3                 9.299e-008  9.302e-008    -7.032    -7.031     0.000
   MgCO3                 1.444e-008  1.445e-008    -7.840    -7.840     0.000
   NaCO3-                1.221e-009  1.173e-009    -8.913    -8.931    -0.018
Ca              2.600e-004
   Ca+2                  2.566e-004  2.186e-004    -3.591    -3.660    -0.069
   CaHCO3+               2.485e-006  2.387e-006    -5.605    -5.622    -0.017
   CaSO4                 8.841e-007  8.843e-007    -6.054    -6.053     0.000
   CaCO3                 9.299e-008  9.302e-008    -7.032    -7.031     0.000
   CaOH+                 2.384e-010  2.289e-010    -9.623    -9.640    -0.018
   CaHSO4+               8.551e-013  8.211e-013   -12.068   -12.086    -0.018
Cl              3.000e-005
   Cl-                   3.000e-005  2.880e-005    -4.523    -4.541    -0.018
H(0)            3.555e-025
   H2                    1.778e-025  1.778e-025   -24.750   -24.750     0.000
K               4.000e-005
   K+                    4.000e-005  3.840e-005    -4.398    -4.416    -0.018
   KSO4-                 5.696e-009  5.470e-009    -8.244    -8.262    -0.018
   KOH                   8.398e-013  8.401e-013   -12.076   -12.076     0.000
Mg              7.101e-005
   Mg+2                  7.008e-005  5.978e-005    -4.154    -4.223    -0.069
   MgHCO3+               6.235e-007  5.987e-007    -6.205    -6.223    -0.018
   MgSO4                 2.840e-007  2.841e-007    -6.547    -6.547     0.000
   MgCO3                 1.444e-008  1.445e-008    -7.840    -7.840     0.000
   MgOH+                 1.426e-009  1.370e-009    -8.846    -8.863    -0.018
Na              2.590e-004
   Na+                   2.589e-004  2.486e-004    -3.587    -3.604    -0.018
   NaHCO3                1.196e-007  1.197e-007    -6.922    -6.922     0.000
   NaSO4-                2.631e-008  2.526e-008    -7.580    -7.598    -0.018
   NaCO3-                1.221e-009  1.173e-009    -8.913    -8.931    -0.018
   NaOH                  1.036e-011  1.036e-011   -10.985   -10.984     0.000
O(0)            0.000e+000
   O2                    0.000e+000  0.000e+000   -42.880   -42.880     0.000
S(6)            2.500e-005
   SO4-2                 2.380e-005  2.027e-005    -4.623    -4.693    -0.070
   CaSO4                 8.841e-007  8.843e-007    -6.054    -6.053     0.000
   MgSO4                 2.840e-007  2.841e-007    -6.547    -6.547     0.000
   NaSO4-                2.631e-008  2.526e-008    -7.580    -7.598    -0.018
   KSO4-                 5.696e-009  5.470e-009    -8.244    -8.262    -0.018
   HSO4-                 3.253e-010  3.124e-010    -9.488    -9.505    -0.018
   CaHSO4+               8.551e-013  8.211e-013   -12.068   -12.086    -0.018
Si              4.100e-004
   H4SiO4                4.096e-004  4.098e-004    -3.388    -3.387     0.000
   H3SiO4-               3.970e-007  3.812e-007    -6.401    -6.419    -0.018
   H2SiO4-2              1.924e-013  1.636e-013   -12.716   -12.786    -0.070

------------------------------Saturation indices-------------------------------

	Phase               SI log IAP  log KT

	Anhydrite        -3.99   -8.35   -4.36  CaSO4
	Aragonite        -1.92  -10.26   -8.34  CaCO3
	Calcite          -1.78  -10.26   -8.48  CaCO3
	Chalcedony        0.16   -3.39   -3.55  SiO2
	Chrysotile      -10.85   21.35   32.20  Mg3Si2O5(OH)4
	CO2(g)           -2.05   -3.52   -1.47  CO2
	Dolomite         -3.99  -21.08  -17.09  CaMg(CO3)2
	Gypsum           -3.77   -8.35   -4.58  CaSO4:2H2O
	H2(g)           -21.60  -24.75   -3.15  H2
	H2O(g)           -0.00   -0.00    0.00  H2O
	Halite           -8.14   -8.14    0.00  NaCl
	O2(g)           -39.99  -42.88   -2.89  O2
	Quartz            0.59   -3.39   -3.98  SiO2
	Sepiolite        -7.17    8.59   15.76  Mg2Si3O7.5OH:3H2O
	Sepiolite(d)    -10.07    8.59   18.66  Mg2Si3O7.5OH:3H2O
	SiO2(a)          -0.68   -3.39   -2.71  SiO2
	Talc             -6.82   14.58   21.40  Mg3Si4O10(OH)2

---------------------------------------------
Beginning of inverse modeling 1 calculations.
---------------------------------------------

Using Cl1 standard precision optimization routine.

Solution 1: 

                         Input          Delta    Input+Delta
             pH     6.200e+000  +  3.173e-002  =  6.232e+000
             Al     0.000e+000  +  0.000e+000  =  0.000e+000
     Alkalinity     3.280e-004  +  1.400e-005  =  3.420e-004
          C(-4)     0.000e+000  +  0.000e+000  =  0.000e+000
           C(4)     7.825e-004  +  0.000e+000  =  7.825e-004
             Ca     7.800e-005  +  0.000e+000  =  7.800e-005
             Cl     1.400e-005  +  0.000e+000  =  1.400e-005
           H(0)     0.000e+000  +  0.000e+000  =  0.000e+000
              K     2.800e-005  +  0.000e+000  =  2.800e-005
             Mg     2.900e-005  +  0.000e+000  =  2.900e-005
             Na     1.340e-004  +  0.000e+000  =  1.340e-004
           O(0)     0.000e+000  +  0.000e+000  =  0.000e+000
          S(-2)     0.000e+000  +  0.000e+000  =  0.000e+000
           S(6)     1.000e-005  +  0.000e+000  =  1.000e-005
             Si     2.730e-004  +  0.000e+000  =  2.730e-004

Solution 2: 

                         Input          Delta    Input+Delta
             pH     6.800e+000  +  0.000e+000  =  6.800e+000
             Al     0.000e+000  +  0.000e+000  =  0.000e+000
     Alkalinity     8.951e-004  +  0.000e+000  =  8.951e-004
          C(-4)     0.000e+000  +  0.000e+000  =  0.000e+000
           C(4)     1.199e-003  +  0.000e+000  =  1.199e-003
             Ca     2.600e-004  +  6.001e-006  =  2.660e-004
             Cl     3.000e-005  +  0.000e+000  =  3.000e-005
           H(0)     0.000e+000  +  0.000e+000  =  0.000e+000
              K     4.000e-005  +  1.999e-006  =  4.200e-005
             Mg     7.101e-005  +  0.000e+000  =  7.101e-005
             Na     2.590e-004  +  0.000e+000  =  2.590e-004
           O(0)     0.000e+000  +  0.000e+000  =  0.000e+000
          S(-2)     0.000e+000  +  0.000e+000  =  0.000e+000
           S(6)     2.500e-005  +  0.000e+000  =  2.500e-005
             Si     4.100e-004  +  0.000e+000  =  4.100e-004

Solution fractions:                   Minimum        Maximum
   Solution   1     1.000e+000     0.000e+000     0.000e+000
   Solution   2     1.000e+000     0.000e+000     0.000e+000

Phase mole transfers:                 Minimum        Maximum
         Halite     1.600e-005     0.000e+000     0.000e+000   NaCl
         Gypsum     1.500e-005     0.000e+000     0.000e+000   CaSO4:2H2O
      Kaolinite    -3.279e-005     0.000e+000     0.000e+000   Al2Si2O5(OH)4
Ca-Montmorillon    -8.201e-005     0.000e+000     0.000e+000   Ca0.165Al2.33Si3.67O10(OH)2
         CO2(g)     2.952e-004     0.000e+000     0.000e+000   CO2
        Calcite     1.215e-004     0.000e+000     0.000e+000   CaCO3
        Biotite     1.400e-005     0.000e+000     0.000e+000   KMg3AlSi3O10(OH)2
    Plagioclase     1.758e-004     0.000e+000     0.000e+000   Na0.62Ca0.37Al1.38Si2.625O8

Redox mole transfers:    

Sum of residuals (epsilons in documentation):        2.949e+000
Sum of delta/uncertainty limit:                      2.949e+000
Maximum fractional error in element concentration:   4.998e-002
===============================================================================


Solution 1: 

                         Input          Delta    Input+Delta
             pH     6.200e+000  +  1.654e-002  =  6.217e+000
             Al     0.000e+000  +  0.000e+000  =  0.000e+000
     Alkalinity     3.280e-004  +  7.300e-006  =  3.353e-004
          C(-4)     0.000e+000  +  0.000e+000  =  0.000e+000
           C(4)     7.825e-004  +  0.000e+000  =  7.825e-004
             Ca     7.800e-005  +  0.000e+000  =  7.800e-005
             Cl     1.400e-005  +  0.000e+000  =  1.400e-005
           H(0)     0.000e+000  +  0.000e+000  =  0.000e+000
              K     2.800e-005  +  0.000e+000  =  2.800e-005
             Mg     2.900e-005  +  0.000e+000  =  2.900e-005
             Na     1.340e-004  + -6.700e-006  =  1.273e-004
           O(0)     0.000e+000  +  0.000e+000  =  0.000e+000
          S(-2)     0.000e+000  +  0.000e+000  =  0.000e+000
           S(6)     1.000e-005  +  0.000e+000  =  1.000e-005
             Si     2.730e-004  +  3.595e-006  =  2.766e-004

Solution 2: 

                         Input          Delta    Input+Delta
             pH     6.800e+000  +  0.000e+000  =  6.800e+000
             Al     0.000e+000  +  0.000e+000  =  0.000e+000
     Alkalinity     8.951e-004  +  0.000e+000  =  8.951e-004
          C(-4)     0.000e+000  +  0.000e+000  =  0.000e+000
           C(4)     1.199e-003  +  0.000e+000  =  1.199e-003
             Ca     2.600e-004  +  0.000e+000  =  2.600e-004
             Cl     3.000e-005  +  0.000e+000  =  3.000e-005
           H(0)     0.000e+000  +  0.000e+000  =  0.000e+000
              K     4.000e-005  +  1.999e-006  =  4.200e-005
             Mg     7.101e-005  +  0.000e+000  =  7.101e-005
             Na     2.590e-004  +  1.200e-005  =  2.710e-004
           O(0)     0.000e+000  +  0.000e+000  =  0.000e+000
          S(-2)     0.000e+000  +  0.000e+000  =  0.000e+000
           S(6)     2.500e-005  +  0.000e+000  =  2.500e-005
             Si     4.100e-004  + -2.050e-005  =  3.895e-004

Solution fractions:                   Minimum        Maximum
   Solution   1     1.000e+000     0.000e+000     0.000e+000
   Solution   2     1.000e+000     0.000e+000     0.000e+000

Phase mole transfers:                 Minimum        Maximum
         Halite     1.600e-005     0.000e+000     0.000e+000   NaCl
         Gypsum     1.500e-005     0.000e+000     0.000e+000   CaSO4:2H2O
Ca-Montmorillon    -1.280e-004     0.000e+000     0.000e+000   Ca0.165Al2.33Si3.67O10(OH)2
         CO2(g)     3.048e-004     0.000e+000     0.000e+000   CO2
        Calcite     1.119e-004     0.000e+000     0.000e+000   CaCO3
        Biotite     1.400e-005     0.000e+000     0.000e+000   KMg3AlSi3O10(OH)2
    Plagioclase     2.060e-004     0.000e+000     0.000e+000   Na0.62Ca0.37Al1.38Si2.625O8

Redox mole transfers:    

Sum of residuals (epsilons in documentation):        4.966e+000
Sum of delta/uncertainty limit:                      4.966e+000
Maximum fractional error in element concentration:   5.000e-002

Model contains minimum number of phases.
===============================================================================


Solution 1: 

                         Input          Delta    Input+Delta
             pH     6.200e+000  +  3.173e-002  =  6.232e+000
             Al     0.000e+000  +  0.000e+000  =  0.000e+000
     Alkalinity     3.280e-004  +  1.400e-005  =  3.420e-004
          C(-4)     0.000e+000  +  0.000e+000  =  0.000e+000
           C(4)     7.825e-004  +  0.000e+000  =  7.825e-004
             Ca     7.800e-005  +  0.000e+000  =  7.800e-005
             Cl     1.400e-005  +  0.000e+000  =  1.400e-005
           H(0)     0.000e+000  +  0.000e+000  =  0.000e+000
              K     2.800e-005  +  0.000e+000  =  2.800e-005
             Mg     2.900e-005  +  0.000e+000  =  2.900e-005
             Na     1.340e-004  +  0.000e+000  =  1.340e-004
           O(0)     0.000e+000  +  0.000e+000  =  0.000e+000
          S(-2)     0.000e+000  +  0.000e+000  =  0.000e+000
           S(6)     1.000e-005  +  0.000e+000  =  1.000e-005
             Si     2.730e-004  +  0.000e+000  =  2.730e-004

Solution 2: 

                         Input          Delta    Input+Delta
             pH     6.800e+000  +  0.000e+000  =  6.800e+000
             Al     0.000e+000  +  0.000e+000  =  0.000e+000
     Alkalinity     8.951e-004  +  0.000e+000  =  8.951e-004
          C(-4)     0.000e+000  +  0.000e+000  =  0.000e+000
           C(4)     1.199e-003  +  0.000e+000  =  1.199e-003
             Ca     2.600e-004  +  6.001e-006  =  2.660e-004
             Cl     3.000e-005  +  0.000e+000  =  3.000e-005
           H(0)     0.000e+000  +  0.000e+000  =  0.000e+000
              K     4.000e-005  +  1.999e-006  =  4.200e-005
             Mg     7.101e-005  +  0.000e+000  =  7.101e-005
             Na     2.590e-004  +  0.000e+000  =  2.590e-004
           O(0)     0.000e+000  +  0.000e+000  =  0.000e+000
          S(-2)     0.000e+000  +  0.000e+000  =  0.000e+000
           S(6)     2.500e-005  +  0.000e+000  =  2.500e-005
             Si     4.100e-004  +  0.000e+000  =  4.100e-004

Solution fractions:                   Minimum        Maximum
   Solution   1     1.000e+000     0.000e+000     0.000e+000
   Solution   2     1.000e+000     0.000e+000     0.000e+000

Phase mole transfers:                 Minimum        Maximum
         Halite     1.600e-005     0.000e+000     0.000e+000   NaCl
         Gypsum     1.500e-005     0.000e+000     0.000e+000   CaSO4:2H2O
      Kaolinite    -1.283e-004     0.000e+000     0.000e+000   Al2Si2O5(OH)4
         CO2(g)     3.088e-004     0.000e+000     0.000e+000   CO2
        Calcite     1.080e-004     0.000e+000     0.000e+000   CaCO3
     Chalcedony    -1.099e-004     0.000e+000     0.000e+000   SiO2
        Biotite     1.400e-005     0.000e+000     0.000e+000   KMg3AlSi3O10(OH)2
    Plagioclase     1.758e-004     0.000e+000     0.000e+000   Na0.62Ca0.37Al1.38Si2.625O8

Redox mole transfers:    

Sum of residuals (epsilons in documentation):        2.949e+000
Sum of delta/uncertainty limit:                      2.949e+000
Maximum fractional error in element concentration:   4.998e-002

Model contains minimum number of phases.
===============================================================================


Summary of inverse modeling:

	Number of models found: 3
	Number of minimal models found: 2
	Number of infeasible sets of phases saved: 19
	Number of calls to cl1: 28
------------------
End of simulation.
------------------

------------------------------------
Reading input data for simulation 2.
------------------------------------

	SOLUTION 1 Inflow
		units   mmol/kgw
		pH 	8.1
		Ca	1.698
		Mg	1.730
		Na	9.449
		K	0.435
		Cl	9.234
		S(6)	0.698
		C(4)	6.021
		Si	0.5
	SOLUTION 2 Lake
		pH	7.5
		Ca	11.216
		Mg	491.925
		Na	5428.616
		K	166.479
		Cl	5834.640 
		S(6)	291.427
		C(4)	6.304
		Si	0.5
	INVERSE_MODELING 1
		solutions 1 2
		uncertainty 0.05
		tolerance 1e-10
		balances
			Alkalinity 0.05
		phases
			Halite		p
			Aragonite	p
			CO2(g)		p
			Mirabilite	p
			H2O(g)
			Anorthite
			Albite
			Chalcedony
			Montmorillonite-Aberdeen
			Montmorillonite-BelleFourche	
			Kaolinite   	pre
			Sepiolite	
	PHASES
		Halite
		NaCl = Na+ + Cl-
		log_k	0.0
		Biotite
		KMg3AlSi3O10(OH)2 + 6H+ + 4H2O = K+ + 3Mg+2 + Al(OH)4- + 3H4SiO4 
		log_k	0.0
		Plagioclase
		Na0.62Ca0.37Al1.38Si2.625O8 + 5.5 H+ + 2.5H2O = 0.62Na+ + 0.37Ca+2 + 1.38Al+3 + 2.625H4SiO4
		log_k	0.0
		H2O(g)
		H2O = H2O
		log_k	0.0
		Brucite             19
		Mg(OH)2 + 2H+ = Mg+2 + 2H2O 
		log_k	16.84
		delta_h	-27.1 kcal
		Sylvite
		KCl = K+ + Cl-
		log_k	0.0
		NaX
		NaX = Na+ + X- 
		log_k	0.0
		CaX2
		CaX2 = Ca+2 + 2X- 
		log_k	0.0
		Mirabilite
		Na2SO4:10H2O = 2Na+ + SO4-2 + 10H2O
		log_k	0.0
		Montmorillonite-Aberdeen        116
		(HNaK)0.14Mg0.45Fe0.33Al1.47Si3.82O10(OH)2 + 9.16H2O + 0.84H+ = 0.14H+ + 0.14Na+ + 0.14K+ + 0.45Mg+2 + 0.33Fe+3 + 1.47Al(OH)4- + 3.82H4SiO4
		log_k	-29.688	
		Montmorillonite-BelleFourche    115
		(HNaK)0.09Mg0.29Fe0.24Al1.57Si3.93O10(OH)2 + 10H2O = 0.09H+ + 0.09Na+ + 0.09K+ + 0.29Mg+2 + 0.24Fe+3 + 1.57Al(OH)4- + 3.93H4SiO4
		log_k	-34.913	
	END
-------------------------------------------
Beginning of initial solution calculations.
-------------------------------------------

Initial solution 1.	Inflow

-----------------------------Solution composition------------------------------

	Elements           Molality       Moles

	C(4)             6.021e-003  6.021e-003
	Ca               1.698e-003  1.698e-003
	Cl               9.234e-003  9.234e-003
	K                4.350e-004  4.350e-004
	Mg               1.730e-003  1.730e-003
	Na               9.449e-003  9.449e-003
	S(6)             6.980e-004  6.980e-004
	Si               5.000e-004  5.000e-004

----------------------------Description of solution----------------------------

                                       pH  =   8.100    
                                       pe  =   4.000    
       Specific Conductance (uS/cm, 25 oC) = 1699
                          Density (g/cm3)  =   0.99790
                        Activity of water  =   1.000
                           Ionic strength  =  1.986e-002
                       Mass of water (kg)  =  1.000e+000
                 Total alkalinity (eq/kg)  =  6.070e-003
                       Total CO2 (mol/kg)  =  6.021e-003
                      Temperature (deg C)  =  25.000
                  Electrical balance (eq)  =  3.978e-005
 Percent error, 100*(Cat-|An|)/(Cat+|An|)  =   0.12
                               Iterations  =   7
                                  Total H  = 1.110202e+002
                                  Total O  = 5.552899e+001

----------------------------Distribution of species----------------------------

                                                   Log       Log         Log 
   Species                 Molality    Activity  Molality  Activity     Gamma

   OH-                   1.452e-006  1.260e-006    -5.838    -5.900    -0.062
   H+                    8.926e-009  7.943e-009    -8.049    -8.100    -0.051
   H2O                   5.551e+001  9.995e-001     1.744    -0.000     0.000
C(4)            6.021e-003
   HCO3-                 5.658e-003  4.957e-003    -2.247    -2.305    -0.057
   CO2                   8.817e-005  8.857e-005    -4.055    -4.053     0.002
   CaHCO3+               6.509e-005  5.703e-005    -4.186    -4.244    -0.057
   MgHCO3+               6.230e-005  5.428e-005    -4.205    -4.265    -0.060
   CO3-2                 4.966e-005  2.927e-005    -4.304    -4.534    -0.230
   CaCO3                 4.413e-005  4.433e-005    -4.355    -4.353     0.002
   MgCO3                 2.602e-005  2.614e-005    -4.585    -4.583     0.002
   NaHCO3                2.278e-005  2.288e-005    -4.642    -4.640     0.002
   NaCO3-                5.135e-006  4.474e-006    -5.289    -5.349    -0.060
Ca              1.698e-003
   Ca+2                  1.531e-003  9.018e-004    -2.815    -3.045    -0.230
   CaHCO3+               6.509e-005  5.703e-005    -4.186    -4.244    -0.057
   CaSO4                 5.784e-005  5.810e-005    -4.238    -4.236     0.002
   CaCO3                 4.413e-005  4.433e-005    -4.355    -4.353     0.002
   CaOH+                 2.161e-008  1.883e-008    -7.665    -7.725    -0.060
   CaHSO4+               3.103e-012  2.704e-012   -11.508   -11.568    -0.060
Cl              9.234e-003
   Cl-                   9.234e-003  8.015e-003    -2.035    -2.096    -0.061
H(0)            8.893e-028
   H2                    4.446e-028  4.467e-028   -27.352   -27.350     0.002
K               4.350e-004
   K+                    4.340e-004  3.767e-004    -3.362    -3.424    -0.061
   KSO4-                 9.812e-007  8.548e-007    -6.008    -6.068    -0.060
   KOH                   1.636e-010  1.644e-010    -9.786    -9.784     0.002
Mg              1.730e-003
   Mg+2                  1.571e-003  9.359e-004    -2.804    -3.029    -0.225
   MgSO4                 7.052e-005  7.085e-005    -4.152    -4.150     0.002
   MgHCO3+               6.230e-005  5.428e-005    -4.205    -4.265    -0.060
   MgCO3                 2.602e-005  2.614e-005    -4.585    -4.583     0.002
   MgOH+                 4.908e-007  4.276e-007    -6.309    -6.369    -0.060
Na              9.449e-003
   Na+                   9.406e-003  8.210e-003    -2.027    -2.086    -0.059
   NaHCO3                2.278e-005  2.288e-005    -4.642    -4.640     0.002
   NaSO4-                1.525e-005  1.329e-005    -4.817    -4.877    -0.060
   NaCO3-                5.135e-006  4.474e-006    -5.289    -5.349    -0.060
   NaOH                  6.794e-009  6.825e-009    -8.168    -8.166     0.002
O(0)            4.155e-038
   O2                    2.078e-038  2.087e-038   -37.682   -37.680     0.002
S(6)            6.980e-004
   SO4-2                 5.534e-004  3.229e-004    -3.257    -3.491    -0.234
   MgSO4                 7.052e-005  7.085e-005    -4.152    -4.150     0.002
   CaSO4                 5.784e-005  5.810e-005    -4.238    -4.236     0.002
   NaSO4-                1.525e-005  1.329e-005    -4.817    -4.877    -0.060
   KSO4-                 9.812e-007  8.548e-007    -6.008    -6.068    -0.060
   HSO4-                 2.863e-010  2.494e-010    -9.543    -9.603    -0.060
   CaHSO4+               3.103e-012  2.704e-012   -11.508   -11.568    -0.060
Si              5.000e-004
   H4SiO4                4.895e-004  4.918e-004    -3.310    -3.308     0.002
   H3SiO4-               1.048e-005  9.129e-006    -4.980    -5.040    -0.060
   H2SiO4-2              1.357e-010  7.817e-011    -9.867   -10.107    -0.239

------------------------------Saturation indices-------------------------------

	Phase               SI log IAP  log KT

	Anhydrite        -2.17   -6.54   -4.36  CaSO4
	Aragonite         0.76   -7.58   -8.34  CaCO3
	Brucite          -3.67   13.17   16.84  Mg(OH)2
	Calcite           0.90   -7.58   -8.48  CaCO3
	Chalcedony        0.24   -3.31   -3.55  SiO2
	Chrysotile        0.70   32.90   32.20  Mg3Si2O5(OH)4
	CO2(g)           -2.58   -4.05   -1.47  CO2
	Dolomite          1.95  -15.14  -17.09  CaMg(CO3)2
	Gypsum           -1.96   -6.54   -4.58  CaSO4:2H2O
	H2(g)           -24.20  -27.35   -3.15  H2
	H2O(g)           -0.00   -0.00    0.00  H2O
	Halite           -4.18   -4.18    0.00  NaCl
	Mirabilite       -7.66   -7.66    0.00  Na2SO4:10H2O
	O2(g)           -34.79  -37.68   -2.89  O2
	Quartz            0.67   -3.31   -3.98  SiO2
	Sepiolite         0.66   16.42   15.76  Mg2Si3O7.5OH:3H2O
	Sepiolite(d)     -2.24   16.42   18.66  Mg2Si3O7.5OH:3H2O
	SiO2(a)          -0.60   -3.31   -2.71  SiO2
	Sylvite          -5.52   -5.52    0.00  KCl
	Talc              4.88   26.28   21.40  Mg3Si4O10(OH)2

Initial solution 2.	Lake

-----------------------------Solution composition------------------------------

	Elements           Molality       Moles

	C(4)             6.304e-003  6.304e-003
	Ca               1.122e-002  1.122e-002
	Cl               5.835e+000  5.835e+000
	K                1.665e-001  1.665e-001
	Mg               4.919e-001  4.919e-001
	Na               5.429e+000  5.429e+000
	S(6)             2.914e-001  2.914e-001
	Si               5.000e-004  5.000e-004

----------------------------Description of solution----------------------------

                                       pH  =   7.500    
                                       pe  =   4.000    
       Specific Conductance (uS/cm, 25 oC) = 422517
                          Density (g/cm3)  =   1.22019
                        Activity of water  =   0.796
                           Ionic strength  =  6.530e+000
                       Mass of water (kg)  =  1.000e+000
                 Total alkalinity (eq/kg)  =  6.665e-003
                       Total CO2 (mol/kg)  =  6.304e-003
                      Temperature (deg C)  =  25.000
                  Electrical balance (eq)  =  1.772e-001
 Percent error, 100*(Cat-|An|)/(Cat+|An|)  =   1.45
                               Iterations  =   7
                                  Total H  = 1.110204e+002
                                  Total O  = 5.669283e+001

----------------------------Distribution of species----------------------------

                                                   Log       Log         Log 
   Species                 Molality    Activity  Molality  Activity     Gamma

   OH-                   5.394e-007  2.519e-007    -6.268    -6.599    -0.331
   H+                    4.490e-008  3.162e-008    -7.348    -7.500    -0.152
   H2O                   5.551e+001  7.958e-001     1.744    -0.099     0.000
C(4)            6.304e-003
   MgHCO3+               2.431e-003  1.041e-002    -2.614    -1.983     0.632
   HCO3-                 1.999e-003  1.163e-003    -2.699    -2.934    -0.235
   NaHCO3                1.215e-003  5.467e-003    -2.915    -2.262     0.653
   MgCO3                 2.799e-004  1.259e-003    -3.553    -2.900     0.653
   CaHCO3+               2.711e-004  1.577e-004    -3.567    -3.802    -0.235
   NaCO3-                6.269e-005  2.684e-004    -4.203    -3.571     0.632
   CO2                   2.310e-005  1.039e-004    -4.636    -3.983     0.653
   CO3-2                 1.507e-005  1.724e-006    -4.822    -5.763    -0.941
   CaCO3                 6.845e-006  3.079e-005    -5.165    -4.512     0.653
Ca              1.122e-002
   Ca+2                  8.936e-003  1.063e-002    -2.049    -1.974     0.075
   CaSO4                 2.002e-003  9.005e-003    -2.699    -2.046     0.653
   CaHCO3+               2.711e-004  1.577e-004    -3.567    -3.802    -0.235
   CaCO3                 6.845e-006  3.079e-005    -5.165    -4.512     0.653
   CaOH+                 1.037e-008  4.439e-008    -7.984    -7.353     0.632
   CaHSO4+               3.896e-010  1.668e-009    -9.409    -8.778     0.632
Cl              5.835e+000
   Cl-                   5.835e+000  3.415e+000     0.766     0.533    -0.233
H(0)            3.148e-027
   H2                    1.574e-027  7.079e-027   -26.803   -26.150     0.653
K               1.665e-001
   K+                    1.658e-001  9.703e-002    -0.780    -1.013    -0.233
   KSO4-                 6.761e-004  2.895e-003    -3.170    -2.538     0.632
   KOH                   1.882e-009  8.466e-009    -8.725    -8.072     0.653
Mg              4.919e-001
   Mg+2                  3.199e-001  7.651e-001    -0.495    -0.116     0.379
   MgSO4                 1.693e-001  7.616e-001    -0.771    -0.118     0.653
   MgHCO3+               2.431e-003  1.041e-002    -2.614    -1.983     0.632
   MgCO3                 2.799e-004  1.259e-003    -3.553    -2.900     0.653
   MgOH+                 1.632e-005  6.990e-005    -4.787    -4.156     0.632
Na              5.429e+000
   Na+                   5.386e+000  8.360e+000     0.731     0.922     0.191
   NaSO4-                4.155e-002  1.779e-001    -1.381    -0.750     0.632
   NaHCO3                1.215e-003  5.467e-003    -2.915    -2.262     0.653
   NaCO3-                6.269e-005  2.684e-004    -4.203    -3.571     0.632
   NaOH                  3.090e-007  1.390e-006    -6.510    -5.857     0.653
O(0)            0.000e+000
   O2                    0.000e+000  0.000e+000   -40.931   -40.278     0.653
S(6)            2.914e-001
   MgSO4                 1.693e-001  7.616e-001    -0.771    -0.118     0.653
   SO4-2                 7.787e-002  4.246e-003    -1.109    -2.372    -1.263
   NaSO4-                4.155e-002  1.779e-001    -1.381    -0.750     0.632
   CaSO4                 2.002e-003  9.005e-003    -2.699    -2.046     0.653
   KSO4-                 6.761e-004  2.895e-003    -3.170    -2.538     0.632
   HSO4-                 3.049e-009  1.306e-008    -8.516    -7.884     0.632
   CaHSO4+               3.896e-010  1.668e-009    -9.409    -8.778     0.632
Si              5.000e-004
   H4SiO4                4.976e-004  2.238e-003    -3.303    -2.650     0.653
   H3SiO4-               2.437e-006  1.043e-005    -5.613    -4.982     0.632
   H2SiO4-2              6.675e-014  2.245e-011   -13.176   -10.649     2.527

------------------------------Saturation indices-------------------------------

	Phase               SI log IAP  log KT

	Anhydrite         0.02   -4.35   -4.36  CaSO4
	Aragonite         0.60   -7.74   -8.34  CaCO3
	Brucite          -2.15   14.69   16.84  Mg(OH)2
	Calcite           0.74   -7.74   -8.48  CaCO3
	Chalcedony        1.10   -2.45   -3.55  SiO2
	Chrysotile        7.05   39.25   32.20  Mg3Si2O5(OH)4
	CO2(g)           -2.52   -3.98   -1.47  CO2
	Dolomite          3.47  -13.62  -17.09  CaMg(CO3)2
	Gypsum            0.04   -4.54   -4.58  CaSO4:2H2O
	H2(g)           -23.00  -26.15   -3.15  H2
	H2O(g)           -0.10   -0.10    0.00  H2O
	Halite            1.46    1.46    0.00  NaCl
	Mirabilite       -1.52   -1.52    0.00  Na2SO4:10H2O
	O2(g)           -37.39  -40.28   -2.89  O2
	Quartz            1.53   -2.45   -3.98  SiO2
	Sepiolite         6.11   21.87   15.76  Mg2Si3O7.5OH:3H2O
	Sepiolite(d)      3.21   21.87   18.66  Mg2Si3O7.5OH:3H2O
	SiO2(a)           0.26   -2.45   -2.71  SiO2
	Sylvite          -0.48   -0.48    0.00  KCl
	Talc             13.05   34.45   21.40  Mg3Si4O10(OH)2

---------------------------------------------
Beginning of inverse modeling 1 calculations.
---------------------------------------------

Using Cl1 standard precision optimization routine.

Solution 1: Inflow

                         Input          Delta    Input+Delta
             pH     8.100e+000  +  0.000e+000  =  8.100e+000
             Al     0.000e+000  +  0.000e+000  =  0.000e+000
     Alkalinity     6.070e-003  +  0.000e+000  =  6.070e-003
          C(-4)     0.000e+000  +  0.000e+000  =  0.000e+000
           C(4)     6.021e-003  +  0.000e+000  =  6.021e-003
             Ca     1.698e-003  +  0.000e+000  =  1.698e-003
             Cl     9.234e-003  +  1.208e-014  =  9.234e-003
          Fe(2)     0.000e+000  +  0.000e+000  =  0.000e+000
          Fe(3)     0.000e+000  +  0.000e+000  =  0.000e+000
           H(0)     0.000e+000  +  0.000e+000  =  0.000e+000
              K     4.350e-004  +  0.000e+000  =  4.350e-004
             Mg     1.730e-003  +  0.000e+000  =  1.730e-003
             Na     9.449e-003  + -3.978e-005  =  9.409e-003
           O(0)     0.000e+000  +  0.000e+000  =  0.000e+000
          S(-2)     0.000e+000  +  0.000e+000  =  0.000e+000
           S(6)     6.980e-004  +  0.000e+000  =  6.980e-004
             Si     5.000e-004  +  0.000e+000  =  5.000e-004

Solution 2: Lake

                         Input          Delta    Input+Delta
             pH     7.500e+000  +  6.317e-013  =  7.500e+000
             Al     0.000e+000  +  0.000e+000  =  0.000e+000
     Alkalinity     6.665e-003  +  0.000e+000  =  6.665e-003
          C(-4)     0.000e+000  +  0.000e+000  =  0.000e+000
           C(4)     6.304e-003  +  0.000e+000  =  6.304e-003
             Ca     1.122e-002  +  1.205e-014  =  1.122e-002
             Cl     5.835e+000  + -9.421e-002  =  5.740e+000
          Fe(2)     0.000e+000  +  0.000e+000  =  0.000e+000
          Fe(3)     0.000e+000  +  0.000e+000  =  0.000e+000
           H(0)     0.000e+000  +  0.000e+000  =  0.000e+000
              K     1.665e-001  +  0.000e+000  =  1.665e-001
             Mg     4.919e-001  + -2.658e-014  =  4.919e-001
             Na     5.429e+000  + -2.714e-001  =  5.157e+000
           O(0)     0.000e+000  +  0.000e+000  =  0.000e+000
          S(-2)     0.000e+000  +  0.000e+000  =  0.000e+000
           S(6)     2.914e-001  +  1.034e-014  =  2.914e-001
             Si     5.000e-004  +  0.000e+000  =  5.000e-004

Solution fractions:                   Minimum        Maximum
   Solution   1     6.217e+002     0.000e+000     0.000e+000
   Solution   2     1.000e+000     0.000e+000     0.000e+000

Phase mole transfers:                 Minimum        Maximum
      Aragonite    -3.737e+000     0.000e+000     0.000e+000   CaCO3
     Mirabilite    -1.425e-001     0.000e+000     0.000e+000   Na2SO4:10H2O
         H2O(g)    -3.444e+004     0.000e+000     0.000e+000   H2O
      Anorthite     2.692e+000     0.000e+000     0.000e+000   CaAl2Si2O8
         Albite    -3.032e-001     0.000e+000     0.000e+000   NaAlSi3O8
     Chalcedony    -5.045e+000     0.000e+000     0.000e+000   SiO2
Montmorillonite    -6.397e+000     0.000e+000     0.000e+000   (HNaK)0.14Mg0.45Fe0.33Al1.47Si3.82O10(OH)2
Montmorillonite     8.795e+000     0.000e+000     0.000e+000   (HNaK)0.09Mg0.29Fe0.24Al1.57Si3.93O10(OH)2
      Kaolinite    -4.744e+000     0.000e+000     0.000e+000   Al2Si2O5(OH)4
      Sepiolite    -1.279e-001     0.000e+000     0.000e+000   Mg2Si3O7.5OH:3H2O

Redox mole transfers:    

Sum of residuals (epsilons in documentation):        5.367e+001
Sum of delta/uncertainty limit:                      1.407e+000
Maximum fractional error in element concentration:   5.000e-002
===============================================================================


Solution 1: Inflow

                         Input          Delta    Input+Delta
             pH     8.100e+000  +  0.000e+000  =  8.100e+000
             Al     0.000e+000  +  0.000e+000  =  0.000e+000
     Alkalinity     6.070e-003  +  0.000e+000  =  6.070e-003
          C(-4)     0.000e+000  +  0.000e+000  =  0.000e+000
           C(4)     6.021e-003  +  0.000e+000  =  6.021e-003
             Ca     1.698e-003  +  3.916e-005  =  1.737e-003
             Cl     9.234e-003  +  1.208e-014  =  9.234e-003
          Fe(2)     0.000e+000  +  0.000e+000  =  0.000e+000
          Fe(3)     0.000e+000  +  0.000e+000  =  0.000e+000
           H(0)     0.000e+000  +  0.000e+000  =  0.000e+000
              K     4.350e-004  +  0.000e+000  =  4.350e-004
             Mg     1.730e-003  +  8.650e-005  =  1.817e-003
             Na     9.449e-003  + -2.911e-004  =  9.158e-003
           O(0)     0.000e+000  +  0.000e+000  =  0.000e+000
          S(-2)     0.000e+000  +  0.000e+000  =  0.000e+000
           S(6)     6.980e-004  +  0.000e+000  =  6.980e-004
             Si     5.000e-004  +  0.000e+000  =  5.000e-004

Solution 2: Lake

                         Input          Delta    Input+Delta
             pH     7.500e+000  +  0.000e+000  =  7.500e+000
             Al     0.000e+000  +  0.000e+000  =  0.000e+000
     Alkalinity     6.665e-003  +  3.322e-004  =  6.997e-003
          C(-4)     0.000e+000  +  0.000e+000  =  0.000e+000
           C(4)     6.304e-003  +  3.152e-004  =  6.619e-003
             Ca     1.122e-002  + -5.608e-004  =  1.066e-002
             Cl     5.835e+000  +  2.917e-001  =  6.126e+000
          Fe(2)     0.000e+000  +  0.000e+000  =  0.000e+000
          Fe(3)     0.000e+000  +  0.000e+000  =  0.000e+000
           H(0)     0.000e+000  +  0.000e+000  =  0.000e+000
              K     1.665e-001  + -8.324e-003  =  1.582e-001
             Mg     4.919e-001  + -2.460e-002  =  4.673e-001
             Na     5.429e+000  +  1.735e-001  =  5.602e+000
           O(0)     0.000e+000  +  0.000e+000  =  0.000e+000
          S(-2)     0.000e+000  +  0.000e+000  =  0.000e+000
           S(6)     2.914e-001  +  1.093e-014  =  2.914e-001
             Si     5.000e-004  +  0.000e+000  =  5.000e-004

Solution fractions:                   Minimum        Maximum
   Solution   1     6.635e+002     0.000e+000     0.000e+000
   Solution   2     1.000e+000     0.000e+000     0.000e+000

Phase mole transfers:                 Minimum        Maximum
      Aragonite    -3.988e+000     0.000e+000     0.000e+000   CaCO3
     Mirabilite    -1.717e-001     0.000e+000     0.000e+000   Na2SO4:10H2O
         H2O(g)    -3.676e+004     0.000e+000     0.000e+000   H2O
      Anorthite     2.846e+000     0.000e+000     0.000e+000   CaAl2Si2O8
     Chalcedony    -7.026e+000     0.000e+000     0.000e+000   SiO2
Montmorillonite    -8.028e+000     0.000e+000     0.000e+000   (HNaK)0.14Mg0.45Fe0.33Al1.47Si3.82O10(OH)2
Montmorillonite     1.104e+001     0.000e+000     0.000e+000   (HNaK)0.09Mg0.29Fe0.24Al1.57Si3.93O10(OH)2
      Kaolinite    -5.611e+000     0.000e+000     0.000e+000   Al2Si2O5(OH)4
      Sepiolite    -1.632e-001     0.000e+000     0.000e+000   Mg2Si3O7.5OH:3H2O

Redox mole transfers:    

Sum of residuals (epsilons in documentation):        1.385e+003
Sum of delta/uncertainty limit:                      8.713e+000
Maximum fractional error in element concentration:   5.000e-002

Model contains minimum number of phases.
===============================================================================


Solution 1: Inflow

                         Input          Delta    Input+Delta
             pH     8.100e+000  +  0.000e+000  =  8.100e+000
             Al     0.000e+000  +  0.000e+000  =  0.000e+000
     Alkalinity     6.070e-003  +  0.000e+000  =  6.070e-003
          C(-4)     0.000e+000  +  0.000e+000  =  0.000e+000
           C(4)     6.021e-003  +  0.000e+000  =  6.021e-003
             Ca     1.698e-003  +  0.000e+000  =  1.698e-003
             Cl     9.234e-003  +  1.209e-014  =  9.234e-003
          Fe(2)     0.000e+000  +  0.000e+000  =  0.000e+000
          Fe(3)     0.000e+000  +  0.000e+000  =  0.000e+000
           H(0)     0.000e+000  +  0.000e+000  =  0.000e+000
              K     4.350e-004  +  0.000e+000  =  4.350e-004
             Mg     1.730e-003  +  0.000e+000  =  1.730e-003
             Na     9.449e-003  + -3.978e-005  =  9.409e-003
           O(0)     0.000e+000  +  0.000e+000  =  0.000e+000
          S(-2)     0.000e+000  +  0.000e+000  =  0.000e+000
           S(6)     6.980e-004  +  0.000e+000  =  6.980e-004
             Si     5.000e-004  +  0.000e+000  =  5.000e-004

Solution 2: Lake

                         Input          Delta    Input+Delta
             pH     7.500e+000  +  0.000e+000  =  7.500e+000
             Al     0.000e+000  +  0.000e+000  =  0.000e+000
     Alkalinity     6.665e-003  +  0.000e+000  =  6.665e-003
          C(-4)     0.000e+000  +  0.000e+000  =  0.000e+000
           C(4)     6.304e-003  +  0.000e+000  =  6.304e-003
             Ca     1.122e-002  +  1.503e-014  =  1.122e-002
             Cl     5.835e+000  +  1.280e-001  =  5.963e+000
          Fe(2)     0.000e+000  +  0.000e+000  =  0.000e+000
          Fe(3)     0.000e+000  +  0.000e+000  =  0.000e+000
           H(0)     0.000e+000  +  0.000e+000  =  0.000e+000
              K     1.665e-001  +  0.000e+000  =  1.665e-001
             Mg     4.919e-001  + -2.460e-002  =  4.673e-001
             Na     5.429e+000  +  3.719e-014  =  5.429e+000
           O(0)     0.000e+000  +  0.000e+000  =  0.000e+000
          S(-2)     0.000e+000  +  0.000e+000  =  0.000e+000
           S(6)     2.914e-001  +  1.277e-014  =  2.914e-001
             Si     5.000e-004  +  0.000e+000  =  5.000e-004

Solution fractions:                   Minimum        Maximum
   Solution   1     7.751e+002     0.000e+000     0.000e+000
   Solution   2     1.000e+000     0.000e+000     0.000e+000

Phase mole transfers:                 Minimum        Maximum
         Halite    -1.195e+000     0.000e+000     0.000e+000   NaCl
      Aragonite    -4.661e+000     0.000e+000     0.000e+000   CaCO3
     Mirabilite    -2.496e-001     0.000e+000     0.000e+000   Na2SO4:10H2O
         H2O(g)    -4.296e+004     0.000e+000     0.000e+000   H2O
      Anorthite     3.356e+000     0.000e+000     0.000e+000   CaAl2Si2O8
     Chalcedony    -9.285e+000     0.000e+000     0.000e+000   SiO2
Montmorillonite    -1.050e+001     0.000e+000     0.000e+000   (HNaK)0.14Mg0.45Fe0.33Al1.47Si3.82O10(OH)2
Montmorillonite     1.444e+001     0.000e+000     0.000e+000   (HNaK)0.09Mg0.29Fe0.24Al1.57Si3.93O10(OH)2
      Kaolinite    -6.973e+000     0.000e+000     0.000e+000   Al2Si2O5(OH)4
      Sepiolite    -1.676e-001     0.000e+000     0.000e+000   Mg2Si3O7.5OH:3H2O

Redox mole transfers:    

Sum of residuals (epsilons in documentation):        6.670e+001
Sum of delta/uncertainty limit:                      1.523e+000
Maximum fractional error in element concentration:   5.000e-002
===============================================================================


Solution 1: Inflow

                         Input          Delta    Input+Delta
             pH     8.100e+000  +  0.000e+000  =  8.100e+000
             Al     0.000e+000  +  0.000e+000  =  0.000e+000
     Alkalinity     6.070e-003  +  0.000e+000  =  6.070e-003
          C(-4)     0.000e+000  +  0.000e+000  =  0.000e+000
           C(4)     6.021e-003  +  0.000e+000  =  6.021e-003
             Ca     1.698e-003  +  0.000e+000  =  1.698e-003
             Cl     9.234e-003  +  0.000e+000  =  9.234e-003
          Fe(2)     0.000e+000  +  0.000e+000  =  0.000e+000
          Fe(3)     0.000e+000  +  0.000e+000  =  0.000e+000
           H(0)     0.000e+000  +  0.000e+000  =  0.000e+000
              K     4.350e-004  +  0.000e+000  =  4.350e-004
             Mg     1.730e-003  +  0.000e+000  =  1.730e-003
             Na     9.449e-003  + -3.978e-005  =  9.409e-003
           O(0)     0.000e+000  +  0.000e+000  =  0.000e+000
          S(-2)     0.000e+000  +  0.000e+000  =  0.000e+000
           S(6)     6.980e-004  +  0.000e+000  =  6.980e-004
             Si     5.000e-004  +  0.000e+000  =  5.000e-004

Solution 2: Lake

                         Input          Delta    Input+Delta
             pH     7.500e+000  +  0.000e+000  =  7.500e+000
             Al     0.000e+000  +  0.000e+000  =  0.000e+000
     Alkalinity     6.665e-003  +  0.000e+000  =  6.665e-003
          C(-4)     0.000e+000  +  0.000e+000  =  0.000e+000
           C(4)     6.304e-003  +  0.000e+000  =  6.304e-003
             Ca     1.122e-002  +  0.000e+000  =  1.122e-002
             Cl     5.835e+000  + -9.421e-002  =  5.740e+000
          Fe(2)     0.000e+000  +  0.000e+000  =  0.000e+000
          Fe(3)     0.000e+000  +  0.000e+000  =  0.000e+000
           H(0)     0.000e+000  +  0.000e+000  =  0.000e+000
              K     1.665e-001  +  4.065e-014  =  1.665e-001
             Mg     4.919e-001  +  0.000e+000  =  4.919e-001
             Na     5.429e+000  + -2.714e-001  =  5.157e+000
           O(0)     0.000e+000  +  0.000e+000  =  0.000e+000
          S(-2)     0.000e+000  +  0.000e+000  =  0.000e+000
           S(6)     2.914e-001  +  7.400e-014  =  2.914e-001
             Si     5.000e-004  +  0.000e+000  =  5.000e-004

Solution fractions:                   Minimum        Maximum
   Solution   1     6.217e+002     0.000e+000     0.000e+000
   Solution   2     1.000e+000     0.000e+000     0.000e+000

Phase mole transfers:                 Minimum        Maximum
      Aragonite    -1.044e+000     0.000e+000     0.000e+000   CaCO3
         CO2(g)    -2.692e+000     0.000e+000     0.000e+000   CO2
     Mirabilite    -1.425e-001     0.000e+000     0.000e+000   Na2SO4:10H2O
         H2O(g)    -3.445e+004     0.000e+000     0.000e+000   H2O
         Albite    -3.032e-001     0.000e+000     0.000e+000   NaAlSi3O8
     Chalcedony    -5.045e+000     0.000e+000     0.000e+000   SiO2
Montmorillonite    -6.397e+000     0.000e+000     0.000e+000   (HNaK)0.14Mg0.45Fe0.33Al1.47Si3.82O10(OH)2
Montmorillonite     8.795e+000     0.000e+000     0.000e+000   (HNaK)0.09Mg0.29Fe0.24Al1.57Si3.93O10(OH)2
      Kaolinite    -2.051e+000     0.000e+000     0.000e+000   Al2Si2O5(OH)4
      Sepiolite    -1.279e-001     0.000e+000     0.000e+000   Mg2Si3O7.5OH:3H2O

Redox mole transfers:    

Sum of residuals (epsilons in documentation):        5.367e+001
Sum of delta/uncertainty limit:                      1.407e+000
Maximum fractional error in element concentration:   5.000e-002
===============================================================================


Solution 1: Inflow

                         Input          Delta    Input+Delta
             pH     8.100e+000  +  0.000e+000  =  8.100e+000
             Al     0.000e+000  +  0.000e+000  =  0.000e+000
     Alkalinity     6.070e-003  +  0.000e+000  =  6.070e-003
          C(-4)     0.000e+000  +  0.000e+000  =  0.000e+000
           C(4)     6.021e-003  +  0.000e+000  =  6.021e-003
             Ca     1.698e-003  +  3.916e-005  =  1.737e-003
             Cl     9.234e-003  +  0.000e+000  =  9.234e-003
          Fe(2)     0.000e+000  +  0.000e+000  =  0.000e+000
          Fe(3)     0.000e+000  +  0.000e+000  =  0.000e+000
           H(0)     0.000e+000  +  0.000e+000  =  0.000e+000
              K     4.350e-004  +  0.000e+000  =  4.350e-004
             Mg     1.730e-003  +  8.650e-005  =  1.817e-003
             Na     9.449e-003  + -2.911e-004  =  9.158e-003
           O(0)     0.000e+000  +  0.000e+000  =  0.000e+000
          S(-2)     0.000e+000  +  0.000e+000  =  0.000e+000
           S(6)     6.980e-004  +  0.000e+000  =  6.980e-004
             Si     5.000e-004  +  0.000e+000  =  5.000e-004

Solution 2: Lake

                         Input          Delta    Input+Delta
             pH     7.500e+000  +  0.000e+000  =  7.500e+000
             Al     0.000e+000  +  0.000e+000  =  0.000e+000
     Alkalinity     6.665e-003  +  3.322e-004  =  6.997e-003
          C(-4)     0.000e+000  +  0.000e+000  =  0.000e+000
           C(4)     6.304e-003  +  3.152e-004  =  6.619e-003
             Ca     1.122e-002  + -5.608e-004  =  1.066e-002
             Cl     5.835e+000  +  2.917e-001  =  6.126e+000
          Fe(2)     0.000e+000  +  0.000e+000  =  0.000e+000
          Fe(3)     0.000e+000  +  0.000e+000  =  0.000e+000
           H(0)     0.000e+000  +  0.000e+000  =  0.000e+000
              K     1.665e-001  + -8.324e-003  =  1.582e-001
             Mg     4.919e-001  + -2.460e-002  =  4.673e-001
             Na     5.429e+000  +  1.735e-001  =  5.602e+000
           O(0)     0.000e+000  +  0.000e+000  =  0.000e+000
          S(-2)     0.000e+000  +  0.000e+000  =  0.000e+000
           S(6)     2.914e-001  +  4.119e-014  =  2.914e-001
             Si     5.000e-004  +  0.000e+000  =  5.000e-004

Solution fractions:                   Minimum        Maximum
   Solution   1     6.635e+002     0.000e+000     0.000e+000
   Solution   2     1.000e+000     0.000e+000     0.000e+000

Phase mole transfers:                 Minimum        Maximum
      Aragonite    -1.142e+000     0.000e+000     0.000e+000   CaCO3
         CO2(g)    -2.846e+000     0.000e+000     0.000e+000   CO2
     Mirabilite    -1.717e-001     0.000e+000     0.000e+000   Na2SO4:10H2O
         H2O(g)    -3.677e+004     0.000e+000     0.000e+000   H2O
     Chalcedony    -7.026e+000     0.000e+000     0.000e+000   SiO2
Montmorillonite    -8.028e+000     0.000e+000     0.000e+000   (HNaK)0.14Mg0.45Fe0.33Al1.47Si3.82O10(OH)2
Montmorillonite     1.104e+001     0.000e+000     0.000e+000   (HNaK)0.09Mg0.29Fe0.24Al1.57Si3.93O10(OH)2
      Kaolinite    -2.765e+000     0.000e+000     0.000e+000   Al2Si2O5(OH)4
      Sepiolite    -1.632e-001     0.000e+000     0.000e+000   Mg2Si3O7.5OH:3H2O

Redox mole transfers:    

Sum of residuals (epsilons in documentation):        1.385e+003
Sum of delta/uncertainty limit:                      8.713e+000
Maximum fractional error in element concentration:   5.000e-002

Model contains minimum number of phases.
===============================================================================


Solution 1: Inflow

                         Input          Delta    Input+Delta
             pH     8.100e+000  +  0.000e+000  =  8.100e+000
             Al     0.000e+000  +  0.000e+000  =  0.000e+000
     Alkalinity     6.070e-003  +  0.000e+000  =  6.070e-003
          C(-4)     0.000e+000  +  0.000e+000  =  0.000e+000
           C(4)     6.021e-003  +  0.000e+000  =  6.021e-003
             Ca     1.698e-003  +  0.000e+000  =  1.698e-003
             Cl     9.234e-003  +  0.000e+000  =  9.234e-003
          Fe(2)     0.000e+000  +  0.000e+000  =  0.000e+000
          Fe(3)     0.000e+000  +  0.000e+000  =  0.000e+000
           H(0)     0.000e+000  +  0.000e+000  =  0.000e+000
              K     4.350e-004  +  0.000e+000  =  4.350e-004
             Mg     1.730e-003  +  0.000e+000  =  1.730e-003
             Na     9.449e-003  + -3.978e-005  =  9.409e-003
           O(0)     0.000e+000  +  0.000e+000  =  0.000e+000
          S(-2)     0.000e+000  +  0.000e+000  =  0.000e+000
           S(6)     6.980e-004  +  0.000e+000  =  6.980e-004
             Si     5.000e-004  +  0.000e+000  =  5.000e-004

Solution 2: Lake

                         Input          Delta    Input+Delta
             pH     7.500e+000  +  0.000e+000  =  7.500e+000
             Al     0.000e+000  +  0.000e+000  =  0.000e+000
     Alkalinity     6.665e-003  +  0.000e+000  =  6.665e-003
          C(-4)     0.000e+000  +  0.000e+000  =  0.000e+000
           C(4)     6.304e-003  +  0.000e+000  =  6.304e-003
             Ca     1.122e-002  +  1.208e-014  =  1.122e-002
             Cl     5.835e+000  + -9.421e-002  =  5.740e+000
          Fe(2)     0.000e+000  +  0.000e+000  =  0.000e+000
          Fe(3)     0.000e+000  +  0.000e+000  =  0.000e+000
           H(0)     0.000e+000  +  0.000e+000  =  0.000e+000
              K     1.665e-001  +  0.000e+000  =  1.665e-001
             Mg     4.919e-001  +  0.000e+000  =  4.919e-001
             Na     5.429e+000  + -2.714e-001  =  5.157e+000
           O(0)     0.000e+000  +  0.000e+000  =  0.000e+000
          S(-2)     0.000e+000  +  0.000e+000  =  0.000e+000
           S(6)     2.914e-001  +  0.000e+000  =  2.914e-001
             Si     5.000e-004  +  0.000e+000  =  5.000e-004

Solution fractions:                   Minimum        Maximum
   Solution   1     6.217e+002     0.000e+000     0.000e+000
   Solution   2     1.000e+000     0.000e+000     0.000e+000

Phase mole transfers:                 Minimum        Maximum
         CO2(g)    -3.737e+000     0.000e+000     0.000e+000   CO2
     Mirabilite    -1.425e-001     0.000e+000     0.000e+000   Na2SO4:10H2O
         H2O(g)    -3.445e+004     0.000e+000     0.000e+000   H2O
      Anorthite    -1.044e+000     0.000e+000     0.000e+000   CaAl2Si2O8
         Albite    -3.032e-001     0.000e+000     0.000e+000   NaAlSi3O8
     Chalcedony    -5.045e+000     0.000e+000     0.000e+000   SiO2
Montmorillonite    -6.397e+000     0.000e+000     0.000e+000   (HNaK)0.14Mg0.45Fe0.33Al1.47Si3.82O10(OH)2
Montmorillonite     8.795e+000     0.000e+000     0.000e+000   (HNaK)0.09Mg0.29Fe0.24Al1.57Si3.93O10(OH)2
      Kaolinite    -1.007e+000     0.000e+000     0.000e+000   Al2Si2O5(OH)4
      Sepiolite    -1.279e-001     0.000e+000     0.000e+000   Mg2Si3O7.5OH:3H2O

Redox mole transfers:    

Sum of residuals (epsilons in documentation):        5.367e+001
Sum of delta/uncertainty limit:                      1.407e+000
Maximum fractional error in element concentration:   5.000e-002
===============================================================================


Solution 1: Inflow

                         Input          Delta    Input+Delta
             pH     8.100e+000  +  0.000e+000  =  8.100e+000
             Al     0.000e+000  +  0.000e+000  =  0.000e+000
     Alkalinity     6.070e-003  +  0.000e+000  =  6.070e-003
          C(-4)     0.000e+000  +  0.000e+000  =  0.000e+000
           C(4)     6.021e-003  +  0.000e+000  =  6.021e-003
             Ca     1.698e-003  +  3.916e-005  =  1.737e-003
             Cl     9.234e-003  +  0.000e+000  =  9.234e-003
          Fe(2)     0.000e+000  +  0.000e+000  =  0.000e+000
          Fe(3)     0.000e+000  +  0.000e+000  =  0.000e+000
           H(0)     0.000e+000  +  0.000e+000  =  0.000e+000
              K     4.350e-004  +  0.000e+000  =  4.350e-004
             Mg     1.730e-003  +  8.650e-005  =  1.817e-003
             Na     9.449e-003  + -2.911e-004  =  9.158e-003
           O(0)     0.000e+000  +  0.000e+000  =  0.000e+000
          S(-2)     0.000e+000  +  0.000e+000  =  0.000e+000
           S(6)     6.980e-004  +  0.000e+000  =  6.980e-004
             Si     5.000e-004  +  0.000e+000  =  5.000e-004

Solution 2: Lake

                         Input          Delta    Input+Delta
             pH     7.500e+000  +  0.000e+000  =  7.500e+000
             Al     0.000e+000  +  0.000e+000  =  0.000e+000
     Alkalinity     6.665e-003  +  3.322e-004  =  6.997e-003
          C(-4)     0.000e+000  +  0.000e+000  =  0.000e+000
           C(4)     6.304e-003  +  3.152e-004  =  6.619e-003
             Ca     1.122e-002  + -5.608e-004  =  1.066e-002
             Cl     5.835e+000  +  2.917e-001  =  6.126e+000
          Fe(2)     0.000e+000  +  0.000e+000  =  0.000e+000
          Fe(3)     0.000e+000  +  0.000e+000  =  0.000e+000
           H(0)     0.000e+000  +  0.000e+000  =  0.000e+000
              K     1.665e-001  + -8.324e-003  =  1.582e-001
             Mg     4.919e-001  + -2.460e-002  =  4.673e-001
             Na     5.429e+000  +  1.735e-001  =  5.602e+000
           O(0)     0.000e+000  +  0.000e+000  =  0.000e+000
          S(-2)     0.000e+000  +  0.000e+000  =  0.000e+000
           S(6)     2.914e-001  +  0.000e+000  =  2.914e-001
             Si     5.000e-004  +  2.198e-012  =  5.000e-004

Solution fractions:                   Minimum        Maximum
   Solution   1     6.635e+002     0.000e+000     0.000e+000
   Solution   2     1.000e+000     0.000e+000     0.000e+000

Phase mole transfers:                 Minimum        Maximum
         CO2(g)    -3.988e+000     0.000e+000     0.000e+000   CO2
     Mirabilite    -1.717e-001     0.000e+000     0.000e+000   Na2SO4:10H2O
         H2O(g)    -3.677e+004     0.000e+000     0.000e+000   H2O
      Anorthite    -1.142e+000     0.000e+000     0.000e+000   CaAl2Si2O8
     Chalcedony    -7.026e+000     0.000e+000     0.000e+000   SiO2
Montmorillonite    -8.028e+000     0.000e+000     0.000e+000   (HNaK)0.14Mg0.45Fe0.33Al1.47Si3.82O10(OH)2
Montmorillonite     1.104e+001     0.000e+000     0.000e+000   (HNaK)0.09Mg0.29Fe0.24Al1.57Si3.93O10(OH)2
      Kaolinite    -1.623e+000     0.000e+000     0.000e+000   Al2Si2O5(OH)4
      Sepiolite    -1.632e-001     0.000e+000     0.000e+000   Mg2Si3O7.5OH:3H2O

Redox mole transfers:    

Sum of residuals (epsilons in documentation):        1.385e+003
Sum of delta/uncertainty limit:                      8.713e+000
Maximum fractional error in element concentration:   5.000e-002

Model contains minimum number of phases.
===============================================================================


Solution 1: Inflow

                         Input          Delta    Input+Delta
             pH     8.100e+000  +  0.000e+000  =  8.100e+000
             Al     0.000e+000  +  0.000e+000  =  0.000e+000
     Alkalinity     6.070e-003  +  0.000e+000  =  6.070e-003
          C(-4)     0.000e+000  +  0.000e+000  =  0.000e+000
           C(4)     6.021e-003  +  0.000e+000  =  6.021e-003
             Ca     1.698e-003  +  0.000e+000  =  1.698e-003
             Cl     9.234e-003  +  0.000e+000  =  9.234e-003
          Fe(2)     0.000e+000  +  0.000e+000  =  0.000e+000
          Fe(3)     0.000e+000  +  0.000e+000  =  0.000e+000
           H(0)     0.000e+000  +  0.000e+000  =  0.000e+000
              K     4.350e-004  +  0.000e+000  =  4.350e-004
             Mg     1.730e-003  +  0.000e+000  =  1.730e-003
             Na     9.449e-003  + -3.978e-005  =  9.409e-003
           O(0)     0.000e+000  +  0.000e+000  =  0.000e+000
          S(-2)     0.000e+000  +  0.000e+000  =  0.000e+000
           S(6)     6.980e-004  +  0.000e+000  =  6.980e-004
             Si     5.000e-004  +  0.000e+000  =  5.000e-004

Solution 2: Lake

                         Input          Delta    Input+Delta
             pH     7.500e+000  +  0.000e+000  =  7.500e+000
             Al     0.000e+000  +  0.000e+000  =  0.000e+000
     Alkalinity     6.665e-003  +  0.000e+000  =  6.665e-003
          C(-4)     0.000e+000  +  0.000e+000  =  0.000e+000
           C(4)     6.304e-003  +  0.000e+000  =  6.304e-003
             Ca     1.122e-002  +  0.000e+000  =  1.122e-002
             Cl     5.835e+000  +  1.280e-001  =  5.963e+000
          Fe(2)     0.000e+000  +  0.000e+000  =  0.000e+000
          Fe(3)     0.000e+000  +  0.000e+000  =  0.000e+000
           H(0)     0.000e+000  +  0.000e+000  =  0.000e+000
              K     1.665e-001  +  5.387e-014  =  1.665e-001
             Mg     4.919e-001  + -2.460e-002  =  4.673e-001
             Na     5.429e+000  + -4.491e-013  =  5.429e+000
           O(0)     0.000e+000  +  0.000e+000  =  0.000e+000
          S(-2)     0.000e+000  +  0.000e+000  =  0.000e+000
           S(6)     2.914e-001  +  4.806e-014  =  2.914e-001
             Si     5.000e-004  +  0.000e+000  =  5.000e-004

Solution fractions:                   Minimum        Maximum
   Solution   1     7.751e+002     0.000e+000     0.000e+000
   Solution   2     1.000e+000     0.000e+000     0.000e+000

Phase mole transfers:                 Minimum        Maximum
         Halite    -1.195e+000     0.000e+000     0.000e+000   NaCl
      Aragonite    -1.305e+000     0.000e+000     0.000e+000   CaCO3
         CO2(g)    -3.356e+000     0.000e+000     0.000e+000   CO2
     Mirabilite    -2.496e-001     0.000e+000     0.000e+000   Na2SO4:10H2O
         H2O(g)    -4.296e+004     0.000e+000     0.000e+000   H2O
     Chalcedony    -9.285e+000     0.000e+000     0.000e+000   SiO2
Montmorillonite    -1.050e+001     0.000e+000     0.000e+000   (HNaK)0.14Mg0.45Fe0.33Al1.47Si3.82O10(OH)2
Montmorillonite     1.444e+001     0.000e+000     0.000e+000   (HNaK)0.09Mg0.29Fe0.24Al1.57Si3.93O10(OH)2
      Kaolinite    -3.617e+000     0.000e+000     0.000e+000   Al2Si2O5(OH)4
      Sepiolite    -1.676e-001     0.000e+000     0.000e+000   Mg2Si3O7.5OH:3H2O

Redox mole transfers:    

Sum of residuals (epsilons in documentation):        6.670e+001
Sum of delta/uncertainty limit:                      1.523e+000
Maximum fractional error in element concentration:   5.000e-002
===============================================================================


Solution 1: Inflow

                         Input          Delta    Input+Delta
             pH     8.100e+000  +  0.000e+000  =  8.100e+000
             Al     0.000e+000  +  0.000e+000  =  0.000e+000
     Alkalinity     6.070e-003  +  0.000e+000  =  6.070e-003
          C(-4)     0.000e+000  +  0.000e+000  =  0.000e+000
           C(4)     6.021e-003  +  0.000e+000  =  6.021e-003
             Ca     1.698e-003  +  0.000e+000  =  1.698e-003
             Cl     9.234e-003  +  0.000e+000  =  9.234e-003
          Fe(2)     0.000e+000  +  0.000e+000  =  0.000e+000
          Fe(3)     0.000e+000  +  0.000e+000  =  0.000e+000
           H(0)     0.000e+000  +  0.000e+000  =  0.000e+000
              K     4.350e-004  +  0.000e+000  =  4.350e-004
             Mg     1.730e-003  +  0.000e+000  =  1.730e-003
             Na     9.449e-003  + -3.978e-005  =  9.409e-003
           O(0)     0.000e+000  +  0.000e+000  =  0.000e+000
          S(-2)     0.000e+000  +  0.000e+000  =  0.000e+000
           S(6)     6.980e-004  +  0.000e+000  =  6.980e-004
             Si     5.000e-004  +  0.000e+000  =  5.000e-004

Solution 2: Lake

                         Input          Delta    Input+Delta
             pH     7.500e+000  +  0.000e+000  =  7.500e+000
             Al     0.000e+000  +  0.000e+000  =  0.000e+000
     Alkalinity     6.665e-003  +  0.000e+000  =  6.665e-003
          C(-4)     0.000e+000  +  0.000e+000  =  0.000e+000
           C(4)     6.304e-003  +  0.000e+000  =  6.304e-003
             Ca     1.122e-002  +  1.496e-014  =  1.122e-002
             Cl     5.835e+000  +  1.280e-001  =  5.963e+000
          Fe(2)     0.000e+000  +  0.000e+000  =  0.000e+000
          Fe(3)     0.000e+000  +  0.000e+000  =  0.000e+000
           H(0)     0.000e+000  +  0.000e+000  =  0.000e+000
              K     1.665e-001  +  0.000e+000  =  1.665e-001
             Mg     4.919e-001  + -2.460e-002  =  4.673e-001
             Na     5.429e+000  +  1.144e-014  =  5.429e+000
           O(0)     0.000e+000  +  0.000e+000  =  0.000e+000
          S(-2)     0.000e+000  +  0.000e+000  =  0.000e+000
           S(6)     2.914e-001  +  0.000e+000  =  2.914e-001
             Si     5.000e-004  +  2.509e-012  =  5.000e-004

Solution fractions:                   Minimum        Maximum
   Solution   1     7.751e+002     0.000e+000     0.000e+000
   Solution   2     1.000e+000     0.000e+000     0.000e+000

Phase mole transfers:                 Minimum        Maximum
         Halite    -1.195e+000     0.000e+000     0.000e+000   NaCl
         CO2(g)    -4.661e+000     0.000e+000     0.000e+000   CO2
     Mirabilite    -2.496e-001     0.000e+000     0.000e+000   Na2SO4:10H2O
         H2O(g)    -4.297e+004     0.000e+000     0.000e+000   H2O
      Anorthite    -1.305e+000     0.000e+000     0.000e+000   CaAl2Si2O8
     Chalcedony    -9.285e+000     0.000e+000     0.000e+000   SiO2
Montmorillonite    -1.050e+001     0.000e+000     0.000e+000   (HNaK)0.14Mg0.45Fe0.33Al1.47Si3.82O10(OH)2
Montmorillonite     1.444e+001     0.000e+000     0.000e+000   (HNaK)0.09Mg0.29Fe0.24Al1.57Si3.93O10(OH)2
      Kaolinite    -2.312e+000     0.000e+000     0.000e+000   Al2Si2O5(OH)4
      Sepiolite    -1.676e-001     0.000e+000     0.000e+000   Mg2Si3O7.5OH:3H2O

Redox mole transfers:    

Sum of residuals (epsilons in documentation):        6.670e+001
Sum of delta/uncertainty limit:                      1.523e+000
Maximum fractional error in element concentration:   5.000e-002
===============================================================================


Summary of inverse modeling:

	Number of models found: 9
	Number of minimal models found: 3
	Number of infeasible sets of phases saved: 25
	Number of calls to cl1: 46
------------------
End of simulation.
------------------

------------------------------------
Reading input data for simulation 3.
------------------------------------

	SOLUTION 1 
		units   mg/l
		temp	17
		pH 	7.6
		Ca	41
		Mg	13
		Na	3.8
		Alkalinity	178 as HCO3
		S(6)	19
	SOLUTION 2 
		units   mg/l
		temp	19
		pH 	8.4
		Ca	3
		Mg	1.9
		Na	140
		Alkalinity	367 as HCO3
		S(6)	13
	INVERSE_MODELING 1
		solutions 1 2
		uncertainty 0.03
		balances
		phases
			CH2O
			Calcite
			Goethite
			Pyrite
			CaX2
			MgX2
			NaX
			Gypsum
	PHASES
		Halite
		NaCl = Na+ + Cl-
		log_k	0.0
		Biotite
		KMg3AlSi3O10(OH)2 + 6H+ + 4H2O = K+ + 3Mg+2 + Al(OH)4- + 3H4SiO4 
		log_k	0.0
		Plagioclase
		Na0.62Ca0.37Al1.38Si2.625O8 + 5.5 H+ + 2.5H2O = 0.62Na+ + 0.37Ca+2 + 1.38Al+3 + 2.625H4SiO4
		log_k	0.0
		H2O(g)
		H2O = H2O
		log_k	0.0
		Brucite             19
		Mg(OH)2 + 2H+ = Mg+2 + 2H2O 
		log_k		16.84	
		delta_h	-27.1 kcal
		Sylvite
		KCl = K+ + Cl-
		log_k	0.0
		NaX
		NaX = Na+ + X- 
		log_k	0.0
		CaX2
		CaX2 = Ca+2 + 2X- 
		log_k	0.0
		MgX2
		MgX2 = Mg+2 + 2X- 
		log_k	0.0
		HX
		HX = H+ + X-
		log_k	0.0
		KX
		KX = K+ + X-
		log_k	0.0
		Mirabilite
		Na2SO4:10H2O = 2Na+ + SO4-2 + 10H2O
		log_k	0.0
		Montmorillonite-Aberdeen        116
		(HNaK)0.14Mg0.45Fe0.33Al1.47Si3.82O10(OH)2 + 9.16H2O + 0.84H+ = 0.14H+ + 0.14Na+ + 0.14K+ + 0.45Mg+2 + 0.33Fe+3 + 1.47Al(OH)4- + 3.82H4SiO4
		log_k	-29.688
		Montmorillonite-BelleFourche    115
		(HNaK)0.09Mg0.29Fe0.24Al1.57Si3.93O10(OH)2 + 10H2O = 0.09H+ + 0.09Na+ + 0.09K+ + 0.29Mg+2 + 0.24Fe+3 + 1.57Al(OH)4- + 3.93H4SiO4
		log_k	-34.913
		CH2O
		CH2O + H2O = CO2 + 4H+ + 4e-
		log_k	0.0
	END
-------------------------------------------
Beginning of initial solution calculations.
-------------------------------------------

Initial solution 1.	

-----------------------------Solution composition------------------------------

	Elements           Molality       Moles

	Alkalinity       2.918e-003  2.918e-003
	Ca               1.023e-003  1.023e-003
	Mg               5.349e-004  5.349e-004
	Na               1.653e-004  1.653e-004
	S(6)             1.978e-004  1.978e-004

----------------------------Description of solution----------------------------

                                       pH  =   7.600    
                                       pe  =   4.000    
       Specific Conductance (uS/cm, 25 oC) = 306
                          Density (g/cm3)  =   0.99899
                        Activity of water  =   1.000
                           Ionic strength  =  4.863e-003
                       Mass of water (kg)  =  1.000e+000
                    Total carbon (mol/kg)  =  3.075e-003
                       Total CO2 (mol/kg)  =  3.075e-003
                      Temperature (deg C)  =  17.000
                  Electrical balance (eq)  = -3.207e-005
 Percent error, 100*(Cat-|An|)/(Cat+|An|)  =  -0.50
                               Iterations  =   7
                                  Total H  = 1.110153e+002
                                  Total O  = 5.551606e+001

----------------------------Distribution of species----------------------------

                                                   Log       Log         Log 
   Species                 Molality    Activity  Molality  Activity     Gamma

   OH-                   2.284e-007  2.119e-007    -6.641    -6.674    -0.032
   H+                    2.686e-008  2.512e-008    -7.571    -7.600    -0.029
   H2O                   5.551e+001  9.999e-001     1.744    -0.000     0.000
C(4)            3.075e-003
   HCO3-                 2.859e-003  2.661e-003    -2.544    -2.575    -0.031
   CO2                   1.689e-004  1.691e-004    -3.772    -3.772     0.000
   CaHCO3+               2.314e-005  2.154e-005    -4.636    -4.667    -0.031
   MgHCO3+               1.253e-005  1.164e-005    -4.902    -4.934    -0.032
   CO3-2                 5.538e-006  4.154e-006    -5.257    -5.382    -0.125
   CaCO3                 4.464e-006  4.469e-006    -5.350    -5.350     0.000
   MgCO3                 1.348e-006  1.349e-006    -5.870    -5.870     0.000
   NaHCO3                2.292e-007  2.295e-007    -6.640    -6.639     0.000
   NaCO3-                8.436e-009  7.837e-009    -8.074    -8.106    -0.032
Ca              1.023e-003
   Ca+2                  9.783e-004  7.335e-004    -3.010    -3.135    -0.125
   CaHCO3+               2.314e-005  2.154e-005    -4.636    -4.667    -0.031
   CaSO4                 1.733e-005  1.734e-005    -4.761    -4.761     0.000
   CaCO3                 4.464e-006  4.469e-006    -5.350    -5.350     0.000
   CaOH+                 5.217e-009  4.846e-009    -8.283    -8.315    -0.032
   CaHSO4+               2.507e-012  2.328e-012   -11.601   -11.633    -0.032
H(0)            9.685e-027
   H2                    4.842e-027  4.848e-027   -26.315   -26.314     0.000
Mg              5.349e-004
   Mg+2                  5.116e-004  3.849e-004    -3.291    -3.415    -0.124
   MgHCO3+               1.253e-005  1.164e-005    -4.902    -4.934    -0.032
   MgSO4                 9.332e-006  9.343e-006    -5.030    -5.030     0.000
   MgCO3                 1.348e-006  1.349e-006    -5.870    -5.870     0.000
   MgOH+                 2.851e-008  2.648e-008    -7.545    -7.577    -0.032
Na              1.653e-004
   Na+                   1.650e-004  1.534e-004    -3.783    -3.814    -0.032
   NaHCO3                2.292e-007  2.295e-007    -6.640    -6.639     0.000
   NaSO4-                1.005e-007  9.337e-008    -6.998    -7.030    -0.032
   NaCO3-                8.436e-009  7.837e-009    -8.074    -8.106    -0.032
   NaOH                  4.029e-011  4.033e-011   -10.395   -10.394     0.000
O(0)            0.000e+000
   O2                    0.000e+000  0.000e+000   -42.405   -42.404     0.000
S(6)            1.978e-004
   SO4-2                 1.711e-004  1.280e-004    -3.767    -3.893    -0.126
   CaSO4                 1.733e-005  1.734e-005    -4.761    -4.761     0.000
   MgSO4                 9.332e-006  9.343e-006    -5.030    -5.030     0.000
   NaSO4-                1.005e-007  9.337e-008    -6.998    -7.030    -0.032
   HSO4-                 2.842e-010  2.640e-010    -9.546    -9.578    -0.032
   CaHSO4+               2.507e-012  2.328e-012   -11.601   -11.633    -0.032

------------------------------Saturation indices-------------------------------

	Phase               SI log IAP  log KT

	Anhydrite        -2.69   -7.03   -4.34  CaSO4
	Aragonite        -0.23   -8.52   -8.29  CaCO3
	Brucite          -5.60   11.79   17.39  Mg(OH)2
	Calcite          -0.08   -8.52   -8.44  CaCO3
	CH2O            -50.17  -50.17    0.00  CH2O
	CO2(g)           -2.40   -3.77   -1.37  CO2
	Dolomite         -0.41  -17.31  -16.90  CaMg(CO3)2
	Gypsum           -2.44   -7.03   -4.58  CaSO4:2H2O
	H2(g)           -23.20  -26.31   -3.11  H2
	H2O(g)           -0.00   -0.00    0.00  H2O
	Mirabilite      -11.52  -11.52    0.00  Na2SO4:10H2O
	O2(g)           -39.57  -42.40   -2.83  O2

Initial solution 2.	

-----------------------------Solution composition------------------------------

	Elements           Molality       Moles

	Alkalinity       6.018e-003  6.018e-003
	Ca               7.489e-005  7.489e-005
	Mg               7.819e-005  7.819e-005
	Na               6.093e-003  6.093e-003
	S(6)             1.354e-004  1.354e-004

----------------------------Description of solution----------------------------
[...]

Initial solution 2.	Mysse

-----------------------------Solution composition------------------------------

	Elements           Molality       Moles

	C(4)             6.870e-003  6.870e-003
	Ca               1.128e-002  1.128e-002
	Cl               1.785e-002  1.785e-002
	Fe(2)            4.000e-007  4.000e-007
	K                2.540e-003  2.540e-003
	Mg               4.540e-003  4.540e-003
	Na               3.189e-002  3.189e-002
	S(-2)            2.590e-004  2.590e-004
	S(6)             1.986e-002  1.986e-002
	Z                2.330e-003  2.330e-003

----------------------------Description of solution----------------------------

                                       pH  =   6.610    
                                       pe  =   0.000    
       Specific Conductance (uS/cm, 25 oC) = 4993
                          Density (g/cm3)  =   0.98563
                        Activity of water  =   0.998
                           Ionic strength  =  7.256e-002
                       Mass of water (kg)  =  1.000e+000
                 Total alkalinity (eq/kg)  =  5.258e-003
                       Total CO2 (mol/kg)  =  6.870e-003
                      Temperature (deg C)  =  63.000
                  Electrical balance (eq)  =  3.243e-003
 Percent error, 100*(Cat-|An|)/(Cat+|An|)  =   3.20
                               Iterations  =   8
                                  Total H  = 1.110179e+002
                                  Total O  = 5.560448e+001

---------------------------------Redox couples---------------------------------

	Redox couple             pe  Eh (volts)

	S(-2)/S(6)          -3.6485     -0.2433

----------------------------Distribution of species----------------------------

                                                   Log       Log         Log 
   Species                 Molality    Activity  Molality  Activity     Gamma

   OH-                   5.726e-007  4.419e-007    -6.242    -6.355    -0.112
   H+                    2.963e-007  2.455e-007    -6.528    -6.610    -0.082
   H2O                   5.551e+001  9.985e-001     1.744    -0.001     0.000
C(4)            6.870e-003
   HCO3-                 4.711e-003  3.746e-003    -2.327    -2.426    -0.100
   CO2                   1.784e-003  1.814e-003    -2.749    -2.741     0.007
   CaHCO3+               2.347e-004  1.867e-004    -3.629    -3.729    -0.100
   MgHCO3+               6.578e-005  5.169e-005    -4.182    -4.287    -0.105
   NaHCO3                5.046e-005  5.131e-005    -4.297    -4.290     0.007
   CaCO3                 1.560e-005  1.586e-005    -4.807    -4.800     0.007
   NaCO3-                3.512e-006  2.760e-006    -5.454    -5.559    -0.105
   CO3-2                 2.780e-006  1.112e-006    -5.556    -5.954    -0.398
   MgCO3                 1.642e-006  1.670e-006    -5.785    -5.777     0.007
   FeHCO3+               1.183e-008  9.300e-009    -7.927    -8.032    -0.105
   FeCO3                 6.510e-010  6.620e-010    -9.186    -9.179     0.007
Ca              1.128e-002
   Ca+2                  7.217e-003  2.899e-003    -2.142    -2.538    -0.396
   CaSO4                 3.813e-003  3.877e-003    -2.419    -2.411     0.007
   CaHCO3+               2.347e-004  1.867e-004    -3.629    -3.729    -0.100
   CaCO3                 1.560e-005  1.586e-005    -4.807    -4.800     0.007
   CaHSO4+               1.322e-008  1.039e-008    -7.879    -7.983    -0.105
   CaOH+                 2.491e-009  1.957e-009    -8.604    -8.708    -0.105
Cl              1.785e-002
   Cl-                   1.785e-002  1.381e-002    -1.748    -1.860    -0.111
   FeCl+                 6.022e-010  4.732e-010    -9.220    -9.325    -0.105
Fe(2)           4.000e-007
   Fe(HS)2               2.824e-007  2.872e-007    -6.549    -6.542     0.007
   Fe+2                  6.011e-008  2.482e-008    -7.221    -7.605    -0.384
   FeSO4                 3.933e-008  3.999e-008    -7.405    -7.398     0.007
   FeHCO3+               1.183e-008  9.300e-009    -7.927    -8.032    -0.105
   Fe(HS)3-              4.534e-009  3.563e-009    -8.344    -8.448    -0.105
   FeCO3                 6.510e-010  6.620e-010    -9.186    -9.179     0.007
   FeCl+                 6.022e-010  4.732e-010    -9.220    -9.325    -0.105
   FeOH+                 5.042e-010  3.962e-010    -9.297    -9.402    -0.105
   FeHSO4+               1.132e-013  8.893e-014   -12.946   -13.051    -0.105
H(0)            5.998e-017
   H2                    2.999e-017  3.050e-017   -16.523   -16.516     0.007
K               2.540e-003
   K+                    2.394e-003  1.852e-003    -2.621    -2.732    -0.111
   KSO4-                 1.459e-004  1.146e-004    -3.836    -3.941    -0.105
   KOH                   2.569e-011  2.613e-011   -10.590   -10.583     0.007
Mg              4.540e-003
   MgSO4                 2.360e-003  2.399e-003    -2.627    -2.620     0.007
   Mg+2                  2.113e-003  8.783e-004    -2.675    -3.056    -0.381
   MgHCO3+               6.578e-005  5.169e-005    -4.182    -4.287    -0.105
   MgCO3                 1.642e-006  1.670e-006    -5.785    -5.777     0.007
   MgOH+                 3.463e-007  2.721e-007    -6.461    -6.565    -0.105
Na              3.189e-002
   Na+                   3.090e-002  2.435e-002    -1.510    -1.613    -0.103
   NaSO4-                9.408e-004  7.393e-004    -3.027    -3.131    -0.105
   NaHCO3                5.046e-005  5.131e-005    -4.297    -4.290     0.007
   NaCO3-                3.512e-006  2.760e-006    -5.454    -5.559    -0.105
   NaOH                  6.436e-010  6.545e-010    -9.191    -9.184     0.007
O(0)            0.000e+000
   O2                    0.000e+000  0.000e+000   -48.480   -48.473     0.007
S(-2)           2.590e-004
   HS-                   1.476e-004  1.139e-004    -3.831    -3.943    -0.112
   H2S                   1.108e-004  1.127e-004    -3.955    -3.948     0.007
   Fe(HS)2               2.824e-007  2.872e-007    -6.549    -6.542     0.007
   Fe(HS)3-              4.534e-009  3.563e-009    -8.344    -8.448    -0.105
   S-2                   1.443e-009  5.640e-010    -8.841    -9.249    -0.408
S(6)            1.986e-002
   SO4-2                 1.260e-002  4.892e-003    -1.900    -2.311    -0.411
   CaSO4                 3.813e-003  3.877e-003    -2.419    -2.411     0.007
   MgSO4                 2.360e-003  2.399e-003    -2.627    -2.620     0.007
   NaSO4-                9.408e-004  7.393e-004    -3.027    -3.131    -0.105
   KSO4-                 1.459e-004  1.146e-004    -3.836    -3.941    -0.105
   HSO4-                 3.792e-007  2.980e-007    -6.421    -6.526    -0.105
   FeSO4                 3.933e-008  3.999e-008    -7.405    -7.398     0.007
   CaHSO4+               1.322e-008  1.039e-008    -7.879    -7.983    -0.105
   FeHSO4+               1.132e-013  8.893e-014   -12.946   -13.051    -0.105
Z               2.330e-003
   Z                     2.330e-003  2.369e-003    -2.633    -2.625     0.007

------------------------------Saturation indices-------------------------------

	Phase               SI log IAP  log KT

	Anhydrite        -5.16   -5.16    0.00  CaSO4Z0.120
	Anhydrite1       -5.14   -5.14    0.00  CaSO4Z0.110
	Aragonite         0.18   -8.49   -8.67  CaCO3
	Brucite          -4.43   10.16   14.59  Mg(OH)2
	Calcite           0.30   -8.49   -8.79  CaCO3
	CH2O            -29.18  -29.18    0.00  CH2O
	CO2(g)           -0.94   -2.74   -1.80  CO2
	Dolomite          0.37  -17.50  -17.87  CaMg(CO3)2
	FeS(ppt)         -1.02   -4.94   -3.92  FeS
	Gypsum           -0.18   -4.85   -4.67  CaSO4:2H2O
	H2(g)           -13.22  -16.52   -3.30  H2
	H2O(g)           -0.00   -0.00    0.00  H2O
	H2S(g)           -2.57   -3.95   -1.38  H2S
	Halite           -3.47   -3.47    0.00  NaCl
	Mackinawite      -0.29   -4.94   -4.65  FeS
	Melanterite      -8.07   -9.92   -1.85  FeSO4:7H2O
	Mirabilite       -5.54   -5.54    0.00  Na2SO4:10H2O
	O2(g)           -45.40  -48.47   -3.07  O2
	Pyrite           -2.68   -2.68    0.00  FeS2Z0.156
	Siderite         -2.46  -13.56  -11.10  FeCO3
	Sulfur            5.18    9.27    4.09  S
	Sylvite          -4.59   -4.59    0.00  KCl

---------------------------------------------
Beginning of inverse modeling 1 calculations.
---------------------------------------------

Using Cl1 standard precision optimization routine.

Solution 1: Recharge number 3

                         Input          Delta    Input+Delta
             pH     7.550e+000  +  0.000e+000  =  7.550e+000
     Alkalinity     4.016e-003  +  0.000e+000  =  4.016e-003
          C(-4)     0.000e+000  +  0.000e+000  =  0.000e+000
           C(4)     4.300e-003  +  0.000e+000  =  4.300e-003
             Ca     1.200e-003  + -5.306e-005  =  1.147e-003
             Cl     2.000e-005  +  0.000e+000  =  2.000e-005
          Fe(2)     1.000e-006  +  0.000e+000  =  1.000e-006
          Fe(3)     0.000e+000  +  0.000e+000  =  0.000e+000
           H(0)     0.000e+000  +  0.000e+000  =  0.000e+000
              K     2.000e-005  +  0.000e+000  =  2.000e-005
             Mg     1.010e-003  +  0.000e+000  =  1.010e-003
             Na     2.000e-005  +  0.000e+000  =  2.000e-005
           O(0)     0.000e+000  +  0.000e+000  =  0.000e+000
          S(-2)     0.000e+000  +  0.000e+000  =  0.000e+000
           S(6)     1.600e-004  +  0.000e+000  =  1.600e-004
              X     0.000e+000  +  0.000e+000  =  0.000e+000
              Z     1.760e-005  +  0.000e+000  =  1.760e-005

Solution 2: Mysse

                         Input          Delta    Input+Delta
             pH     6.610e+000  +  0.000e+000  =  6.610e+000
     Alkalinity     5.258e-003  +  0.000e+000  =  5.258e-003
          C(-4)     0.000e+000  +  0.000e+000  =  0.000e+000
           C(4)     6.870e-003  +  0.000e+000  =  6.870e-003
             Ca     1.128e-002  +  0.000e+000  =  1.128e-002
             Cl     1.785e-002  +  0.000e+000  =  1.785e-002
          Fe(2)     4.000e-007  +  0.000e+000  =  4.000e-007
          Fe(3)     0.000e+000  +  0.000e+000  =  0.000e+000
           H(0)     0.000e+000  +  0.000e+000  =  0.000e+000
              K     2.540e-003  +  0.000e+000  =  2.540e-003
             Mg     4.540e-003  +  0.000e+000  =  4.540e-003
             Na     3.189e-002  + -3.189e-003  =  2.870e-002
           O(0)     0.000e+000  +  0.000e+000  =  0.000e+000
          S(-2)     2.590e-004  +  0.000e+000  =  2.590e-004
           S(6)     1.986e-002  +  2.700e-005  =  1.989e-002
              X     0.000e+000  +  0.000e+000  =  0.000e+000
              Z     2.330e-003  +  0.000e+000  =  2.330e-003

Solution fractions:                   Minimum        Maximum
   Solution   1     9.999e-001     9.999e-001     1.000e+000
   Solution   2     1.000e+000     1.000e+000     1.000e+000

Phase mole transfers:                 Minimum        Maximum
        Calcite    -1.168e-002    -1.497e-002    -8.887e-003   CaCO3
       Dolomite     3.530e-003     3.434e-003     3.626e-003   CaMg(CO3)2
           CH2O     7.188e-003     4.602e-003     1.012e-002   CH2O
       Goethite     1.778e-003     1.086e-003     2.563e-003   FeOOH
         Pyrite    -1.779e-003    -2.562e-003    -1.088e-003   FeS2Z0.156
     Anhydrite1     2.354e-002     2.234e-002     2.487e-002   CaSO4Z0.110
             HX    -2.846e-003    -6.039e-003    -5.075e-005   HX
           CaX2    -5.262e-003    -6.965e-003    -3.563e-003   CaX2
            NaX     1.337e-002     1.316e-002     1.409e-002   NaX
         Halite     1.531e-002     1.510e-002     1.552e-002   NaCl
        Sylvite     2.520e-003     2.494e-003     2.546e-003   KCl

Redox mole transfers:    
          Fe(3)     1.778e-003
          S(-2)    -3.817e-003

Sum of residuals (epsilons in documentation):        2.020e+000
Sum of delta/uncertainty limit:                      2.020e+000
Maximum fractional error in element concentration:   1.000e-001

Model contains minimum number of phases.
===============================================================================


Solution 1: Recharge number 3

                         Input          Delta    Input+Delta
             pH     7.550e+000  +  0.000e+000  =  7.550e+000
     Alkalinity     4.016e-003  +  0.000e+000  =  4.016e-003
          C(-4)     0.000e+000  +  0.000e+000  =  0.000e+000
           C(4)     4.300e-003  +  0.000e+000  =  4.300e-003
             Ca     1.200e-003  + -5.306e-005  =  1.147e-003
             Cl     2.000e-005  +  0.000e+000  =  2.000e-005
          Fe(2)     1.000e-006  +  0.000e+000  =  1.000e-006
          Fe(3)     0.000e+000  +  0.000e+000  =  0.000e+000
           H(0)     0.000e+000  +  0.000e+000  =  0.000e+000
              K     2.000e-005  +  0.000e+000  =  2.000e-005
             Mg     1.010e-003  +  0.000e+000  =  1.010e-003
             Na     2.000e-005  +  0.000e+000  =  2.000e-005
           O(0)     0.000e+000  +  0.000e+000  =  0.000e+000
          S(-2)     0.000e+000  +  0.000e+000  =  0.000e+000
           S(6)     1.600e-004  +  0.000e+000  =  1.600e-004
              X     0.000e+000  +  0.000e+000  =  0.000e+000
              Z     1.760e-005  +  0.000e+000  =  1.760e-005

Solution 2: Mysse

                         Input          Delta    Input+Delta
             pH     6.610e+000  +  0.000e+000  =  6.610e+000
     Alkalinity     5.258e-003  +  0.000e+000  =  5.258e-003
          C(-4)     0.000e+000  +  0.000e+000  =  0.000e+000
           C(4)     6.870e-003  +  0.000e+000  =  6.870e-003
             Ca     1.128e-002  +  0.000e+000  =  1.128e-002
             Cl     1.785e-002  +  0.000e+000  =  1.785e-002
          Fe(2)     4.000e-007  +  0.000e+000  =  4.000e-007
          Fe(3)     0.000e+000  +  0.000e+000  =  0.000e+000
           H(0)     0.000e+000  +  0.000e+000  =  0.000e+000
              K     2.540e-003  +  0.000e+000  =  2.540e-003
             Mg     4.540e-003  +  0.000e+000  =  4.540e-003
             Na     3.189e-002  + -3.189e-003  =  2.870e-002
           O(0)     0.000e+000  +  0.000e+000  =  0.000e+000
          S(-2)     2.590e-004  +  0.000e+000  =  2.590e-004
           S(6)     1.986e-002  +  2.700e-005  =  1.989e-002
              X     0.000e+000  +  0.000e+000  =  0.000e+000
              Z     2.330e-003  +  0.000e+000  =  2.330e-003

Solution fractions:                   Minimum        Maximum
   Solution   1     1.000e+000     1.000e+000     1.000e+000
   Solution   2     1.000e+000     1.000e+000     1.000e+000

Phase mole transfers:                 Minimum        Maximum
        Calcite    -8.629e-003    -9.020e-003    -8.232e-003   CaCO3
       Dolomite     3.530e-003     3.434e-003     3.626e-003   CaMg(CO3)2
           CH2O     4.139e-003     3.651e-003     4.588e-003   CH2O
       Goethite     9.649e-004     8.321e-004     1.088e-003   FeOOH
         Pyrite    -9.655e-004    -1.087e-003    -8.341e-004   FeS2Z0.156
      Anhydrite     5.205e-003     9.280e-005     1.104e-002   CaSO4Z0.120
     Anhydrite1     1.671e-002     1.038e-002     2.222e-002   CaSO4Z0.110
           CaX2    -6.686e-003    -7.043e-003    -6.582e-003   CaX2
            NaX     1.337e-002     1.316e-002     1.409e-002   NaX
         Halite     1.531e-002     1.510e-002     1.552e-002   NaCl
        Sylvite     2.520e-003     2.494e-003     2.546e-003   KCl

Redox mole transfers:    
          Fe(3)     9.649e-004
          S(-2)    -2.190e-003

Sum of residuals (epsilons in documentation):        2.020e+000
Sum of delta/uncertainty limit:                      2.020e+000
Maximum fractional error in element concentration:   1.000e-001

Model contains minimum number of phases.
===============================================================================


Solution 1: Recharge number 3

                         Input          Delta    Input+Delta
             pH     7.550e+000  +  0.000e+000  =  7.550e+000
     Alkalinity     4.016e-003  +  0.000e+000  =  4.016e-003
          C(-4)     0.000e+000  +  0.000e+000  =  0.000e+000
           C(4)     4.300e-003  +  0.000e+000  =  4.300e-003
             Ca     1.200e-003  + -5.246e-005  =  1.148e-003
             Cl     2.000e-005  +  0.000e+000  =  2.000e-005
          Fe(2)     1.000e-006  + -6.000e-007  =  4.000e-007
          Fe(3)     0.000e+000  +  0.000e+000  =  0.000e+000
           H(0)     0.000e+000  +  0.000e+000  =  0.000e+000
              K     2.000e-005  +  0.000e+000  =  2.000e-005
             Mg     1.010e-003  +  0.000e+000  =  1.010e-003
             Na     2.000e-005  +  0.000e+000  =  2.000e-005
           O(0)     0.000e+000  +  0.000e+000  =  0.000e+000
          S(-2)     0.000e+000  +  0.000e+000  =  0.000e+000
           S(6)     1.600e-004  +  0.000e+000  =  1.600e-004
              X     0.000e+000  +  0.000e+000  =  0.000e+000
              Z     1.760e-005  +  0.000e+000  =  1.760e-005

Solution 2: Mysse

                         Input          Delta    Input+Delta
             pH     6.610e+000  +  0.000e+000  =  6.610e+000
     Alkalinity     5.258e-003  +  0.000e+000  =  5.258e-003
          C(-4)     0.000e+000  +  0.000e+000  =  0.000e+000
           C(4)     6.870e-003  +  0.000e+000  =  6.870e-003
             Ca     1.128e-002  +  0.000e+000  =  1.128e-002
             Cl     1.785e-002  +  0.000e+000  =  1.785e-002
          Fe(2)     4.000e-007  +  0.000e+000  =  4.000e-007
          Fe(3)     0.000e+000  +  0.000e+000  =  0.000e+000
           H(0)     0.000e+000  +  0.000e+000  =  0.000e+000
              K     2.540e-003  +  0.000e+000  =  2.540e-003
             Mg     4.540e-003  +  0.000e+000  =  4.540e-003
             Na     3.189e-002  + -3.189e-003  =  2.870e-002
           O(0)     0.000e+000  +  0.000e+000  =  0.000e+000
          S(-2)     2.590e-004  +  0.000e+000  =  2.590e-004
           S(6)     1.986e-002  +  2.700e-005  =  1.989e-002
              X     0.000e+000  +  0.000e+000  =  0.000e+000
              Z     2.330e-003  +  0.000e+000  =  2.330e-003

Solution fractions:                   Minimum        Maximum
   Solution   1     1.000e+000     1.000e+000     1.000e+000
   Solution   2     1.000e+000     1.000e+000     1.000e+000

Phase mole transfers:                 Minimum        Maximum
        Calcite    -5.008e-003    -5.465e-003    -4.763e-003   CaCO3
       Dolomite     3.530e-003     3.434e-003     3.626e-003   CaMg(CO3)2
           CH2O     5.180e-004     5.128e-004     5.232e-004   CH2O
      Anhydrite     1.138e-002     6.962e-003     1.640e-002   CaSO4Z0.120
     Anhydrite1     8.602e-003     3.350e-003     1.321e-002   CaSO4Z0.110
             HX     3.380e-003     2.922e-003     3.802e-003   HX
           CaX2    -8.376e-003    -8.892e-003    -8.043e-003   CaX2
            NaX     1.337e-002     1.316e-002     1.409e-002   NaX
         Halite     1.531e-002     1.510e-002     1.552e-002   NaCl
        Sylvite     2.520e-003     2.494e-003     2.546e-003   KCl

Redox mole transfers:    
          S(-2)    -2.590e-004

Sum of residuals (epsilons in documentation):        2.610e+000
Sum of delta/uncertainty limit:                      2.610e+000
Maximum fractional error in element concentration:   6.000e-001

Model contains minimum number of phases.
===============================================================================


Summary of inverse modeling:

	Number of models found: 3
	Number of minimal models found: 3
	Number of infeasible sets of phases saved: 31
	Number of calls to cl1: 110
------------------
End of simulation.
------------------

------------------------------------
Reading input data for simulation 6.
------------------------------------

-----------
End of run.
-----------

