   Input file: org_gas
  Output file: org_gas.out
Database file: ../database/phreeqc.dat

------------------
Reading data base.
------------------

	SOLUTION_MASTER_SPECIES
	SOLUTION_SPECIES
	PHASES
	EXCHANGE_MASTER_SPECIES
	EXCHANGE_SPECIES
	SURFACE_MASTER_SPECIES
	SURFACE_SPECIES
	RATES
	END
------------------------------------
Reading input data for simulation 1.
------------------------------------

	DATABASE ../database/phreeqc.dat
	knobs
		logfile
	PRINT
		status false
	SOLUTION 1
	PURE_PHASES 1
		Calcite
		CO2(g)	-1.5
	SAVE solution 2
	END
-------------------------------------------
Beginning of initial solution calculations.
-------------------------------------------

Initial solution 1.	

-----------------------------Solution composition------------------------------

	Elements           Molality       Moles

	Pure water     

----------------------------Description of solution----------------------------

                                       pH  =   7.000    
                                       pe  =   4.000    
       Specific Conductance (uS/cm, 25 oC) = 0
                          Density (g/cm3)  =   0.99705
                        Activity of water  =   1.000
                           Ionic strength  =  1.001e-007
                       Mass of water (kg)  =  1.000e+000
                 Total alkalinity (eq/kg)  =  1.082e-010
                    Total carbon (mol/kg)  =  0.000e+000
                       Total CO2 (mol/kg)  =  0.000e+000
                      Temperature (deg C)  =  25.000
                  Electrical balance (eq)  = -1.082e-010
 Percent error, 100*(Cat-|An|)/(Cat+|An|)  =  -0.05
                               Iterations  =   0
                                  Total H  = 1.110124e+002
                                  Total O  = 5.550622e+001

----------------------------Distribution of species----------------------------

                                                   Log       Log         Log 
   Species                 Molality    Activity  Molality  Activity     Gamma

   OH-                   1.002e-007  1.001e-007    -6.999    -6.999    -0.000
   H+                    1.001e-007  1.000e-007    -7.000    -7.000    -0.000
   H2O                   5.551e+001  1.000e+000     1.744     0.000     0.000
H(0)            1.416e-025
   H2                    7.079e-026  7.079e-026   -25.150   -25.150     0.000
O(0)            0.000e+000
   O2                    0.000e+000  0.000e+000   -42.080   -42.080     0.000

------------------------------Saturation indices-------------------------------

	Phase               SI log IAP  log KT

	H2(g)           -22.00  -25.15   -3.15  H2
	H2O(g)           -1.51    0.00    1.51  H2O
	O2(g)           -39.19  -42.08   -2.89  O2

-----------------------------------------
Beginning of batch-reaction calculations.
-----------------------------------------

Reaction step 1.

Using solution 1.	
Using pure phase assemblage 1.	

-------------------------------Phase assemblage--------------------------------

                                                      Moles in assemblage
Phase                  SI log IAP  log KT      Initial       Final       Delta

Calcite              0.00   -8.48   -8.48   1.000e+001  9.997e+000 -2.502e-003
CO2(g)              -1.50   -2.97   -1.47   1.000e+001  9.996e+000 -3.568e-003

-----------------------------Solution composition------------------------------

	Elements           Molality       Moles

	C                6.071e-003  6.071e-003
	Ca               2.502e-003  2.502e-003

----------------------------Description of solution----------------------------

                                       pH  =   6.971      Charge balance
                                       pe  =  -0.662      Adjusted to redox equilibrium
       Specific Conductance (uS/cm, 25 oC) = 455
                          Density (g/cm3)  =   0.99737
                        Activity of water  =   1.000
                           Ionic strength  =  7.282e-003
                       Mass of water (kg)  =  1.000e+000
                 Total alkalinity (eq/kg)  =  5.004e-003
                       Total CO2 (mol/kg)  =  6.071e-003
                      Temperature (deg C)  =  25.000
                  Electrical balance (eq)  = -1.075e-010
 Percent error, 100*(Cat-|An|)/(Cat+|An|)  =  -0.00
                               Iterations  =  16
                                  Total H  = 1.110124e+002
                                  Total O  = 5.552086e+001

----------------------------Distribution of species----------------------------

                                                   Log       Log         Log 
   Species                 Molality    Activity  Molality  Activity     Gamma

   H+                    1.159e-007  1.070e-007    -6.936    -6.971    -0.035
   OH-                   1.025e-007  9.358e-008    -6.989    -7.029    -0.040
   H2O                   5.551e+001  9.999e-001     1.744    -0.000     0.000
C(-4)           8.918e-030
   CH4                   8.918e-030  8.933e-030   -29.050   -29.049     0.001
C(4)            6.071e-003
   HCO3-                 4.883e-003  4.476e-003    -2.311    -2.349    -0.038
   CO2                   1.075e-003  1.077e-003    -2.969    -2.968     0.001
   CaHCO3+               1.052e-004  9.640e-005    -3.978    -4.016    -0.038
   CaCO3                 5.556e-006  5.565e-006    -5.255    -5.255     0.001
   CO3-2                 2.778e-006  1.962e-006    -5.556    -5.707    -0.151
Ca              2.502e-003
   Ca+2                  2.391e-003  1.688e-003    -2.621    -2.773    -0.151
   CaHCO3+               1.052e-004  9.640e-005    -3.978    -4.016    -0.038
   CaCO3                 5.556e-006  5.565e-006    -5.255    -5.255     0.001
   CaOH+                 2.864e-009  2.619e-009    -8.543    -8.582    -0.039
H(0)            3.407e-016
   H2                    1.704e-016  1.707e-016   -15.769   -15.768     0.001
O(0)            0.000e+000
   O2                    0.000e+000  0.000e+000   -60.845   -60.844     0.001

------------------------------Saturation indices-------------------------------

	Phase               SI log IAP  log KT

	Aragonite        -0.14   -8.48   -8.34  CaCO3
	Calcite           0.00   -8.48   -8.48  CaCO3
	CH4(g)          -26.19  -29.05   -2.86  CH4
	CO2(g)           -1.50   -2.97   -1.47  CO2
	H2(g)           -12.62  -15.77   -3.15  H2
	H2O(g)           -1.51   -0.00    1.51  H2O
	O2(g)           -57.95  -60.84   -2.89  O2

------------------
End of simulation.
------------------

------------------------------------
Reading input data for simulation 2.
------------------------------------

	REACTION 1
		(CH2O)15N	1.0
		.1 .2 .4 .8 1 2 4 8 16 32 64 128 mmol
	PURE_PHASES 1
		Calcite 0.0
	GAS_PHASE 2
		pressure 	1.1
		CO2(g)		0.0
		CH4(g)		0.0
		NH3(g)		0.0
	GAS_PHASE 1
		pressure 	1.1
		CO2(g)		0.0
		CH4(g)		0.0
		N2(g)		0.0
		NH3(g)		0.0
	END
------------------
End of simulation.
------------------

------------------------------------
Reading input data for simulation 3.
------------------------------------

	USE solution 1
	USE reaction 1
	USE gas_phase 1
	END
-----------------------------------------
Beginning of batch-reaction calculations.
-----------------------------------------

Reaction step 1.

Using solution 1.	
Using gas phase 1.	
Using reaction 1.	

Reaction 1.	Irreversible reaction defined in simulation 3.

	 1.000e-004 moles of the following reaction have been added:

	                 Relative
	Reactant            moles

	(CH2O)15N            1.00000

	                 Relative
	Element             moles
	C                   15.00000
	H                   30.00000
	N                    1.00000
	O                   15.00000

-----------------------------Solution composition------------------------------

	Elements           Molality       Moles

	C                1.500e-003  1.500e-003
	N                1.000e-004  1.000e-004

----------------------------Description of solution----------------------------

                                       pH  =   5.524      Charge balance
                                       pe  =  -2.478      Adjusted to redox equilibrium
       Specific Conductance (uS/cm, 25 oC) = 12
                          Density (g/cm3)  =   0.99706
                        Activity of water  =   1.000
                           Ionic strength  =  1.030e-004
                       Mass of water (kg)  =  1.000e+000
                 Total alkalinity (eq/kg)  =  1.000e-004
                       Total CO2 (mol/kg)  =  7.875e-004
                      Temperature (deg C)  =  25.000
                  Electrical balance (eq)  = -1.081e-010
 Percent error, 100*(Cat-|An|)/(Cat+|An|)  =  -0.00
                               Iterations  =  15
                                  Total H  = 1.110154e+002
                                  Total O  = 5.550772e+001

----------------------------Distribution of species----------------------------

                                                   Log       Log         Log 
   Species                 Molality    Activity  Molality  Activity     Gamma

   H+                    3.025e-006  2.991e-006    -5.519    -5.524    -0.005
   OH-                   3.387e-009  3.347e-009    -8.470    -8.475    -0.005
   H2O                   5.551e+001  1.000e+000     1.744    -0.000     0.000
C(-4)           7.125e-004
   CH4                   7.125e-004  7.125e-004    -3.147    -3.147     0.000
C(4)            7.875e-004
   CO2                   6.845e-004  6.845e-004    -3.165    -3.165     0.000
   HCO3-                 1.030e-004  1.018e-004    -3.987    -3.992    -0.005
   CO3-2                 1.673e-009  1.596e-009    -8.777    -8.797    -0.020
H(0)            1.142e-009
   H2                    5.712e-010  5.712e-010    -9.243    -9.243     0.000
N(-3)           1.000e-004
   NH4+                  9.998e-005  9.881e-005    -4.000    -4.005    -0.005
   NH3                   1.883e-008  1.883e-008    -7.725    -7.725     0.000
N(0)            3.506e-010
   N2                    1.753e-010  1.753e-010    -9.756    -9.756     0.000
N(3)            0.000e+000
   NO2-                  0.000e+000  0.000e+000   -65.179   -65.184    -0.005
N(5)            0.000e+000
   NO3-                  0.000e+000  0.000e+000   -87.656   -87.661    -0.005
O(0)            0.000e+000
   O2                    0.000e+000  0.000e+000   -73.894   -73.894     0.000

------------------------------Saturation indices-------------------------------

	Phase               SI log IAP  log KT

	CH4(g)           -0.29   -3.15   -2.86  CH4
	CO2(g)           -1.70   -3.16   -1.47  CO2
	H2(g)            -6.09   -9.24   -3.15  H2
	H2O(g)           -1.51   -0.00    1.51  H2O
	N2(g)            -6.50   -9.76   -3.26  N2
	NH3(g)           -9.50   -7.73    1.77  NH3
	O2(g)           -71.00  -73.89   -2.89  O2

Reaction step 2.

Using solution 1.	
Using gas phase 1.	
Using reaction 1.	

Reaction 1.	Irreversible reaction defined in simulation 3.

	 2.000e-004 moles of the following reaction have been added:

	                 Relative
	Reactant            moles

	(CH2O)15N            1.00000

	                 Relative
	Element             moles
	C                   15.00000
	H                   30.00000
	N                    1.00000
	O                   15.00000

-----------------------------Solution composition------------------------------

	Elements           Molality       Moles

	C                3.000e-003  3.000e-003
	N                2.000e-004  2.000e-004

----------------------------Description of solution----------------------------

                                       pH  =   5.515      Charge balance
                                       pe  =  -2.468      Adjusted to redox equilibrium
       Specific Conductance (uS/cm, 25 oC) = 24
                          Density (g/cm3)  =   0.99708
                        Activity of water  =   1.000
                           Ionic strength  =  2.031e-004
                       Mass of water (kg)  =  1.000e+000
                 Total alkalinity (eq/kg)  =  2.000e-004
                       Total CO2 (mol/kg)  =  1.575e-003
                      Temperature (deg C)  =  25.000
                  Electrical balance (eq)  = -1.082e-010
 Percent error, 100*(Cat-|An|)/(Cat+|An|)  =  -0.00
                               Iterations  =  15
                                  Total H  = 1.110184e+002
                                  Total O  = 5.550922e+001

----------------------------Distribution of species----------------------------

                                                   Log       Log         Log 
   Species                 Molality    Activity  Molality  Activity     Gamma

   H+                    3.104e-006  3.054e-006    -5.508    -5.515    -0.007
   OH-                   3.332e-009  3.277e-009    -8.477    -8.484    -0.007
   H2O                   5.551e+001  9.999e-001     1.744    -0.000     0.000
C(-4)           1.425e-003
   CH4                   1.425e-003  1.425e-003    -2.846    -2.846     0.000
C(4)            1.575e-003
   CO2                   1.372e-003  1.372e-003    -2.863    -2.863     0.000
   HCO3-                 2.031e-004  1.998e-004    -3.692    -3.699    -0.007
   CO3-2                 3.274e-009  3.067e-009    -8.485    -8.513    -0.028
H(0)            1.142e-009
   H2                    5.708e-010  5.709e-010    -9.243    -9.243     0.000
N(-3)           2.000e-004
   NH4+                  2.000e-004  1.967e-004    -3.699    -3.706    -0.007
   NH3                   3.669e-008  3.670e-008    -7.435    -7.435     0.000
N(0)            1.334e-009
   N2                    6.669e-010  6.669e-010    -9.176    -9.176     0.000
N(3)            0.000e+000
   NO2-                  0.000e+000  0.000e+000   -64.896   -64.903    -0.007
N(5)            0.000e+000
   NO3-                  0.000e+000  0.000e+000   -87.372   -87.379    -0.007
O(0)            0.000e+000
   O2                    0.000e+000  0.000e+000   -73.893   -73.893     0.000

------------------------------Saturation indices-------------------------------

	Phase               SI log IAP  log KT

	CH4(g)            0.01   -2.85   -2.86  CH4
	CO2(g)           -1.39   -2.86   -1.47  CO2
	H2(g)            -6.09   -9.24   -3.15  H2
	H2O(g)           -1.51   -0.00    1.51  H2O
	N2(g)            -5.92   -9.18   -3.26  N2
	NH3(g)           -9.21   -7.44    1.77  NH3
	O2(g)           -71.00  -73.89   -2.89  O2

Reaction step 3.

Using solution 1.	
Using gas phase 1.	
Using reaction 1.	

Reaction 1.	Irreversible reaction defined in simulation 3.

	 4.000e-004 moles of the following reaction have been added:

	                 Relative
	Reactant            moles

	(CH2O)15N            1.00000

	                 Relative
	Element             moles
	C                   15.00000
	H                   30.00000
	N                    1.00000
	O                   15.00000

-----------------------------------Gas phase-----------------------------------


Total pressure:   1.1000   atmospheres
    Gas volume:  3.44e-002 liters

                                                        Moles in gas
                                            ----------------------------------
Component                log P           P     Initial       Final       Delta

CH4(g)                    0.01  1.022e+000  0.000e+000  1.439e-003  1.439e-003
CO2(g)                   -1.11  7.749e-002  0.000e+000  1.090e-004  1.090e-004
N2(g)                    -5.08  8.282e-006  0.000e+000  1.165e-008  1.165e-008
NH3(g)                   -8.90  1.269e-009  0.000e+000  1.786e-012  1.786e-012

-----------------------------Solution composition------------------------------

	Elements           Molality       Moles

	C                4.452e-003  4.452e-003
	N                4.000e-004  4.000e-004

----------------------------Description of solution----------------------------

                                       pH  =   5.526      Charge balance
                                       pe  =  -2.443      Adjusted to redox equilibrium
       Specific Conductance (uS/cm, 25 oC) = 47
                          Density (g/cm3)  =   0.99708
                        Activity of water  =   1.000
                           Ionic strength  =  4.030e-004
                       Mass of water (kg)  =  1.000e+000
                 Total alkalinity (eq/kg)  =  4.000e-004
                       Total CO2 (mol/kg)  =  3.041e-003
                      Temperature (deg C)  =  25.000
                  Electrical balance (eq)  = -1.082e-010
 Percent error, 100*(Cat-|An|)/(Cat+|An|)  =  -0.00
                               Iterations  =  22
                                  Total H  = 1.110187e+002
                                  Total O  = 5.551200e+001

----------------------------Distribution of species----------------------------

                                                   Log       Log         Log 
   Species                 Molality    Activity  Molality  Activity     Gamma

   H+                    3.046e-006  2.979e-006    -5.516    -5.526    -0.010
   OH-                   3.438e-009  3.360e-009    -8.464    -8.474    -0.010
   H2O                   5.551e+001  9.999e-001     1.744    -0.000     0.000
C(-4)           1.411e-003
   CH4                   1.411e-003  1.411e-003    -2.850    -2.850     0.000
C(4)            3.041e-003
   CO2                   2.638e-003  2.638e-003    -2.579    -2.579     0.000
   HCO3-                 4.029e-004  3.939e-004    -3.395    -3.405    -0.010
   CO3-2                 6.791e-009  6.201e-009    -8.168    -8.208    -0.039
H(0)            9.671e-010
   H2                    4.836e-010  4.836e-010    -9.316    -9.316     0.000
N(-3)           4.000e-004
   NH4+                  3.999e-004  3.907e-004    -3.398    -3.408    -0.010
   NH3                   7.474e-008  7.475e-008    -7.126    -7.126     0.000
N(0)            9.102e-009
   N2                    4.551e-009  4.551e-009    -8.342    -8.342     0.000
N(3)            0.000e+000
   NO2-                  0.000e+000  0.000e+000   -64.357   -64.367    -0.010
N(5)            0.000e+000
   NO3-                  0.000e+000  0.000e+000   -86.761   -86.771    -0.010
O(0)            0.000e+000
   O2                    0.000e+000  0.000e+000   -73.749   -73.749     0.000

------------------------------Saturation indices-------------------------------

	Phase               SI log IAP  log KT

	CH4(g)            0.01   -2.85   -2.86  CH4
	CO2(g)           -1.11   -2.58   -1.47  CO2
	H2(g)            -6.17   -9.32   -3.15  H2
	H2O(g)           -1.51   -0.00    1.51  H2O
	N2(g)            -5.08   -8.34   -3.26  N2
	NH3(g)           -8.90   -7.13    1.77  NH3
	O2(g)           -70.86  -73.75   -2.89  O2

Reaction step 4.

Using solution 1.	
Using gas phase 1.	
Using reaction 1.	

Reaction 1.	Irreversible reaction defined in simulation 3.

	 8.000e-004 moles of the following reaction have been added:

	                 Relative
	Reactant            moles

	(CH2O)15N            1.00000

	                 Relative
	Element             moles
	C                   15.00000
	H                   30.00000
	N                    1.00000
	O                   15.00000

-----------------------------------Gas phase-----------------------------------


Total pressure:   1.1000   atmospheres
    Gas volume:  1.12e-001 liters

                                                        Moles in gas
                                            ----------------------------------
Component                log P           P     Initial       Final       Delta

CH4(g)                   -0.02  9.576e-001  0.000e+000  4.379e-003  4.379e-003
CO2(g)                   -0.85  1.424e-001  0.000e+000  6.511e-004  6.511e-004
N2(g)                    -4.21  6.208e-005  0.000e+000  2.839e-007  2.839e-007
NH3(g)                   -8.57  2.699e-009  0.000e+000  1.234e-011  1.234e-011

-----------------------------Solution composition------------------------------

	Elements           Molality       Moles

	C                6.970e-003  6.970e-003
	N                7.995e-004  7.994e-004

----------------------------Description of solution----------------------------

                                       pH  =   5.557      Charge balance
                                       pe  =  -2.438      Adjusted to redox equilibrium
       Specific Conductance (uS/cm, 25 oC) = 94
                          Density (g/cm3)  =   0.99710
                        Activity of water  =   1.000
                           Ionic strength  =  8.021e-004
                       Mass of water (kg)  =  1.000e+000
                 Total alkalinity (eq/kg)  =  7.994e-004
                       Total CO2 (mol/kg)  =  5.649e-003
                      Temperature (deg C)  =  25.000
                  Electrical balance (eq)  = -1.082e-010
 Percent error, 100*(Cat-|An|)/(Cat+|An|)  =  -0.00
                               Iterations  =  22
                                  Total H  = 1.110189e+002
                                  Total O  = 5.551691e+001

----------------------------Distribution of species----------------------------

                                                   Log       Log         Log 
   Species                 Molality    Activity  Molality  Activity     Gamma

   H+                    2.861e-006  2.774e-006    -5.544    -5.557    -0.013
   OH-                   3.726e-009  3.608e-009    -8.429    -8.443    -0.014
   H2O                   5.551e+001  9.999e-001     1.744    -0.000     0.000
C(-4)           1.322e-003
   CH4                   1.322e-003  1.322e-003    -2.879    -2.879     0.000
C(4)            5.649e-003
   CO2                   4.847e-003  4.848e-003    -2.315    -2.314     0.000
   HCO3-                 8.021e-004  7.771e-004    -3.096    -3.110    -0.014
   CO3-2                 1.491e-008  1.314e-008    -7.827    -7.882    -0.055
H(0)            8.171e-010
   H2                    4.085e-010  4.086e-010    -9.389    -9.389     0.000
N(-3)           7.994e-004
   NH4+                  7.992e-004  7.737e-004    -3.097    -3.111    -0.014
   NH3                   1.589e-007  1.589e-007    -6.799    -6.799     0.000
N(0)            6.822e-008
   N2                    3.411e-008  3.411e-008    -7.467    -7.467     0.000
N(3)            0.000e+000
   NO2-                  0.000e+000  0.000e+000   -63.775   -63.789    -0.014
N(5)            0.000e+000
   NO3-                  0.000e+000  0.000e+000   -86.106   -86.120    -0.014
O(0)            0.000e+000
   O2                    0.000e+000  0.000e+000   -73.603   -73.603     0.000

------------------------------Saturation indices-------------------------------

	Phase               SI log IAP  log KT

	CH4(g)           -0.02   -2.88   -2.86  CH4
	CO2(g)           -0.85   -2.31   -1.47  CO2
	H2(g)            -6.24   -9.39   -3.15  H2
	H2O(g)           -1.51   -0.00    1.51  H2O
	N2(g)            -4.21   -7.47   -3.26  N2
	NH3(g)           -8.57   -6.80    1.77  NH3
	O2(g)           -70.71  -73.60   -2.89  O2

Reaction step 5.

Using solution 1.	
Using gas phase 1.	
Using reaction 1.	

Reaction 1.	Irreversible reaction defined in simulation 3.

	 1.000e-003 moles of the following reaction have been added:

	                 Relative
	Reactant            moles

	(CH2O)15N            1.00000

	                 Relative
	Element             moles
	C                   15.00000
	H                   30.00000
	N                    1.00000
	O                   15.00000

-----------------------------------Gas phase-----------------------------------


Total pressure:   1.1000   atmospheres
    Gas volume:  1.54e-001 liters

                                                        Moles in gas
                                            ----------------------------------
Component                log P           P     Initial       Final       Delta

CH4(g)                   -0.03  9.294e-001  0.000e+000  5.843e-003  5.843e-003
CO2(g)                   -0.77  1.705e-001  0.000e+000  1.072e-003  1.072e-003
N2(g)                    -3.92  1.214e-004  0.000e+000  7.631e-007  7.631e-007
NH3(g)                   -8.46  3.489e-009  0.000e+000  2.193e-011  2.193e-011

-----------------------------Solution composition------------------------------

	Elements           Molality       Moles

	C                8.086e-003  8.085e-003
	N                9.985e-004  9.985e-004

----------------------------Description of solution----------------------------

                                       pH  =   5.573      Charge balance
                                       pe  =  -2.443      Adjusted to redox equilibrium
       Specific Conductance (uS/cm, 25 oC) = 117
                          Density (g/cm3)  =   0.99710
                        Activity of water  =   1.000
                           Ionic strength  =  1.001e-003
                       Mass of water (kg)  =  1.000e+000
                 Total alkalinity (eq/kg)  =  9.984e-004
                       Total CO2 (mol/kg)  =  6.803e-003
                      Temperature (deg C)  =  25.000
                  Electrical balance (eq)  = -1.082e-010
 Percent error, 100*(Cat-|An|)/(Cat+|An|)  =  -0.00
                               Iterations  =  22
                                  Total H  = 1.110191e+002
                                  Total O  = 5.551907e+001

----------------------------Distribution of species----------------------------

                                                   Log       Log         Log 
   Species                 Molality    Activity  Molality  Activity     Gamma

   H+                    2.763e-006  2.671e-006    -5.559    -5.573    -0.015
   OH-                   3.884e-009  3.748e-009    -8.411    -8.426    -0.016
   H2O                   5.551e+001  9.998e-001     1.744    -0.000     0.000
C(-4)           1.283e-003
   CH4                   1.283e-003  1.283e-003    -2.892    -2.892     0.000
C(4)            6.803e-003
   CO2                   5.802e-003  5.803e-003    -2.236    -2.236     0.000
   HCO3-                 1.001e-003  9.663e-004    -3.000    -3.015    -0.015
   CO3-2                 1.953e-008  1.697e-008    -7.709    -7.770    -0.061
H(0)            7.753e-010
   H2                    3.876e-010  3.877e-010    -9.412    -9.411     0.000
N(-3)           9.984e-004
   NH4+                  9.982e-004  9.627e-004    -3.001    -3.017    -0.016
   NH3                   2.054e-007  2.054e-007    -6.687    -6.687     0.000
N(0)            1.334e-007
   N2                    6.669e-008  6.671e-008    -7.176    -7.176     0.000
N(3)            0.000e+000
   NO2-                  0.000e+000  0.000e+000   -63.577   -63.592    -0.016
N(5)            0.000e+000
   NO3-                  0.000e+000  0.000e+000   -85.885   -85.901    -0.016
O(0)            0.000e+000
   O2                    0.000e+000  0.000e+000   -73.557   -73.557     0.000

------------------------------Saturation indices-------------------------------

	Phase               SI log IAP  log KT

	CH4(g)           -0.03   -2.89   -2.86  CH4
	CO2(g)           -0.77   -2.24   -1.47  CO2
	H2(g)            -6.26   -9.41   -3.15  H2
	H2O(g)           -1.51   -0.00    1.51  H2O
	N2(g)            -3.92   -7.18   -3.26  N2
	NH3(g)           -8.46   -6.69    1.77  NH3
	O2(g)           -70.66  -73.56   -2.89  O2

Reaction step 6.

Using solution 1.	
Using gas phase 1.	
Using reaction 1.	

Reaction 1.	Irreversible reaction defined in simulation 3.

	 2.000e-003 moles of the following reaction have been added:

	                 Relative
	Reactant            moles

	(CH2O)15N            1.00000

	                 Relative
	Element             moles
	C                   15.00000
	H                   30.00000
	N                    1.00000
	O                   15.00000

-----------------------------------Gas phase-----------------------------------


Total pressure:   1.1000   atmospheres
    Gas volume:  3.90e-001 liters

                                                        Moles in gas
                                            ----------------------------------
Component                log P           P     Initial       Final       Delta

CH4(g)                   -0.08  8.234e-001  0.000e+000  1.313e-002  1.313e-002
CO2(g)                   -0.56  2.756e-001  0.000e+000  4.393e-003  4.393e-003
N2(g)                    -2.98  1.035e-003  0.000e+000  1.651e-005  1.651e-005
NH3(g)                   -8.09  8.131e-009  0.000e+000  1.296e-010  1.296e-010

-----------------------------Solution composition------------------------------

	Elements           Molality       Moles

	C                1.248e-002  1.248e-002
	N                1.967e-003  1.967e-003

----------------------------Description of solution----------------------------

                                       pH  =   5.653      Charge balance
                                       pe  =  -2.489      Adjusted to redox equilibrium
       Specific Conductance (uS/cm, 25 oC) = 227
                          Density (g/cm3)  =   0.99713
                        Activity of water  =   1.000
                           Ionic strength  =  1.968e-003
                       Mass of water (kg)  =  9.999e-001
                 Total alkalinity (eq/kg)  =  1.966e-003
                       Total CO2 (mol/kg)  =  1.134e-002
                      Temperature (deg C)  =  25.000
                  Electrical balance (eq)  = -1.082e-010
 Percent error, 100*(Cat-|An|)/(Cat+|An|)  =  -0.00
                               Iterations  =  24
                                  Total H  = 1.110199e+002
                                  Total O  = 5.552743e+001

----------------------------Distribution of species----------------------------

                                                   Log       Log         Log 
   Species                 Molality    Activity  Molality  Activity     Gamma

   H+                    2.329e-006  2.225e-006    -5.633    -5.653    -0.020
   OH-                   4.727e-009  4.499e-009    -8.325    -8.347    -0.021
   H2O                   5.551e+001  9.998e-001     1.744    -0.000     0.000
C(-4)           1.136e-003
   CH4                   1.136e-003  1.137e-003    -2.945    -2.944     0.000
C(4)            1.134e-002
   CO2                   9.377e-003  9.381e-003    -2.028    -2.028     0.000
   HCO3-                 1.968e-003  1.875e-003    -2.706    -2.727    -0.021
   CO3-2                 4.794e-008  3.953e-008    -7.319    -7.403    -0.084
H(0)            6.669e-010
   H2                    3.334e-010  3.336e-010    -9.477    -9.477     0.000
N(-3)           1.966e-003
   NH4+                  1.965e-003  1.869e-003    -2.707    -2.728    -0.022
   NH3                   4.786e-007  4.788e-007    -6.320    -6.320     0.000
N(0)            1.138e-006
   N2                    5.688e-007  5.690e-007    -6.245    -6.245     0.000
N(3)            0.000e+000
   NO2-                  0.000e+000  0.000e+000   -62.928   -62.950    -0.022
N(5)            0.000e+000
   NO3-                  0.000e+000  0.000e+000   -85.171   -85.193    -0.022
O(0)            0.000e+000
   O2                    0.000e+000  0.000e+000   -73.427   -73.427     0.000

------------------------------Saturation indices-------------------------------

	Phase               SI log IAP  log KT

	CH4(g)           -0.08   -2.94   -2.86  CH4
	CO2(g)           -0.56   -2.03   -1.47  CO2
	H2(g)            -6.33   -9.48   -3.15  H2
	H2O(g)           -1.51   -0.00    1.51  H2O
	N2(g)            -2.98   -6.24   -3.26  N2
	NH3(g)           -8.09   -6.32    1.77  NH3
	O2(g)           -70.53  -73.43   -2.89  O2

Reaction step 7.

Using solution 1.	
Using gas phase 1.	
Using reaction 1.	

Reaction 1.	Irreversible reaction defined in simulation 3.

	 4.000e-003 moles of the following reaction have been added:

	                 Relative
	Reactant            moles

	(CH2O)15N            1.00000

	                 Relative
	Element             moles
	C                   15.00000
	H                   30.00000
	N                    1.00000
	O                   15.00000

-----------------------------------Gas phase-----------------------------------


Total pressure:   1.1000   atmospheres
    Gas volume:  9.53e-001 liters

                                                        Moles in gas
                                            ----------------------------------
Component                log P           P     Initial       Final       Delta

CH4(g)                   -0.15  7.116e-001  0.000e+000  2.772e-002  2.772e-002
CO2(g)                   -0.42  3.815e-001  0.000e+000  1.486e-002  1.486e-002
N2(g)                    -2.16  6.904e-003  0.000e+000  2.690e-004  2.690e-004
NH3(g)                   -7.75  1.759e-008  0.000e+000  6.855e-010  6.855e-010

-----------------------------Solution composition------------------------------

	Elements           Molality       Moles

	C                1.742e-002  1.741e-002
	N                3.462e-003  3.462e-003

----------------------------Description of solution----------------------------

                                       pH  =   5.750      Charge balance
                                       pe  =  -2.561      Adjusted to redox equilibrium
       Specific Conductance (uS/cm, 25 oC) = 395
                          Density (g/cm3)  =   0.99718
                        Activity of water  =   1.000
                           Ionic strength  =  3.456e-003
                       Mass of water (kg)  =  9.999e-001
                 Total alkalinity (eq/kg)  =  3.455e-003
                       Total CO2 (mol/kg)  =  1.643e-002
                      Temperature (deg C)  =  25.000
                  Electrical balance (eq)  = -1.082e-010
 Percent error, 100*(Cat-|An|)/(Cat+|An|)  =  -0.00
                               Iterations  =  23
                                  Total H  = 1.110215e+002
                                  Total O  = 5.553649e+001

----------------------------Distribution of species----------------------------

                                                   Log       Log         Log 
   Species                 Molality    Activity  Molality  Activity     Gamma

   H+                    1.887e-006  1.779e-006    -5.724    -5.750    -0.026
   OH-                   6.001e-009  5.626e-009    -8.222    -8.250    -0.028
   H2O                   5.551e+001  9.996e-001     1.744    -0.000     0.000
C(-4)           9.815e-004
   CH4                   9.815e-004  9.823e-004    -3.008    -3.008     0.000
C(4)            1.643e-002
   CO2                   1.298e-002  1.299e-002    -1.887    -1.886     0.000
   HCO3-                 3.455e-003  3.246e-003    -2.461    -2.489    -0.027
   CO3-2                 1.099e-007  8.558e-008    -6.959    -7.068    -0.108
H(0)            5.925e-010
   H2                    2.963e-010  2.965e-010    -9.528    -9.528     0.000
N(-3)           3.455e-003
   NH4+                  3.454e-003  3.234e-003    -2.462    -2.490    -0.029
   NH3                   1.035e-006  1.036e-006    -5.985    -5.985     0.000
N(0)            7.582e-006
   N2                    3.791e-006  3.794e-006    -5.421    -5.421     0.000
N(3)            0.000e+000
   NO2-                  0.000e+000  0.000e+000   -62.336   -62.364    -0.028
N(5)            0.000e+000
   NO3-                  0.000e+000  0.000e+000   -84.528   -84.556    -0.028
O(0)            0.000e+000
   O2                    0.000e+000  0.000e+000   -73.325   -73.324     0.000

------------------------------Saturation indices-------------------------------

	Phase               SI log IAP  log KT

	CH4(g)           -0.15   -3.01   -2.86  CH4
	CO2(g)           -0.42   -1.89   -1.47  CO2
	H2(g)            -6.38   -9.53   -3.15  H2
	H2O(g)           -1.51   -0.00    1.51  H2O
	N2(g)            -2.16   -5.42   -3.26  N2
	NH3(g)           -7.75   -5.98    1.77  NH3
	O2(g)           -70.43  -73.32   -2.89  O2

Reaction step 8.

Using solution 1.	
Using gas phase 1.	
Using reaction 1.	

Reaction 1.	Irreversible reaction defined in simulation 3.

	 8.000e-003 moles of the following reaction have been added:

	                 Relative
	Reactant            moles

	(CH2O)15N            1.00000

	                 Relative
	Element             moles
	C                   15.00000
	H                   30.00000
	N                    1.00000
	O                   15.00000

-----------------------------------Gas phase-----------------------------------


Total pressure:   1.1000   atmospheres
    Gas volume:  2.24e+000 liters

                                                        Moles in gas
                                            ----------------------------------
Component                log P           P     Initial       Final       Delta

CH4(g)                   -0.20  6.267e-001  0.000e+000  5.741e-002  5.741e-002
CO2(g)                   -0.34  4.548e-001  0.000e+000  4.166e-002  4.166e-002
N2(g)                    -1.73  1.846e-002  0.000e+000  1.691e-003  1.691e-003
NH3(g)                   -7.59  2.568e-008  0.000e+000  2.352e-009  2.352e-009

-----------------------------Solution composition------------------------------

	Elements           Molality       Moles

	C                2.093e-002  2.093e-002
	N                4.619e-003  4.619e-003

----------------------------Description of solution----------------------------

                                       pH  =   5.794      Charge balance
                                       pe  =  -2.589      Adjusted to redox equilibrium
       Specific Conductance (uS/cm, 25 oC) = 522
                          Density (g/cm3)  =   0.99721
                        Activity of water  =   1.000
                           Ionic strength  =  4.599e-003
                       Mass of water (kg)  =  9.999e-001
                 Total alkalinity (eq/kg)  =  4.599e-003
                       Total CO2 (mol/kg)  =  2.007e-002
                      Temperature (deg C)  =  25.000
                  Electrical balance (eq)  = -1.082e-010
 Percent error, 100*(Cat-|An|)/(Cat+|An|)  =  -0.00
                               Iterations  =  24
                                  Total H  = 1.110228e+002
                                  Total O  = 5.554290e+001

----------------------------Distribution of species----------------------------

                                                   Log       Log         Log 
   Species                 Molality    Activity  Molality  Activity     Gamma

   H+                    1.717e-006  1.607e-006    -5.765    -5.794    -0.029
   OH-                   6.704e-009  6.227e-009    -8.174    -8.206    -0.032
   H2O                   5.551e+001  9.996e-001     1.744    -0.000     0.000
C(-4)           8.642e-004
   CH4                   8.642e-004  8.651e-004    -3.063    -3.063     0.000
C(4)            2.007e-002
   CO2                   1.547e-002  1.548e-002    -1.811    -1.810     0.000
   HCO3-                 4.599e-003  4.284e-003    -2.337    -2.368    -0.031
   CO3-2                 1.661e-007  1.250e-007    -6.780    -6.903    -0.123
H(0)            5.492e-010
   H2                    2.746e-010  2.749e-010    -9.561    -9.561     0.000
N(-3)           4.599e-003
   NH4+                  4.597e-003  4.264e-003    -2.337    -2.370    -0.033
   NH3                   1.510e-006  1.512e-006    -5.821    -5.820     0.000
N(0)            2.026e-005
   N2                    1.013e-005  1.014e-005    -4.994    -4.994     0.000
N(3)            0.000e+000
   NO2-                  0.000e+000  0.000e+000   -62.025   -62.057    -0.032
N(5)            0.000e+000
   NO3-                  0.000e+000  0.000e+000   -84.184   -84.216    -0.032
O(0)            0.000e+000
   O2                    0.000e+000  0.000e+000   -73.259   -73.259     0.000

------------------------------Saturation indices-------------------------------

	Phase               SI log IAP  log KT

	CH4(g)           -0.20   -3.06   -2.86  CH4
	CO2(g)           -0.34   -1.81   -1.47  CO2
	H2(g)            -6.41   -9.56   -3.15  H2
	H2O(g)           -1.51   -0.00    1.51  H2O
	N2(g)            -1.73   -4.99   -3.26  N2
	NH3(g)           -7.59   -5.82    1.77  NH3
	O2(g)           -70.37  -73.26   -2.89  O2

Reaction step 9.

Using solution 1.	
Using gas phase 1.	
Using reaction 1.	

Reaction 1.	Irreversible reaction defined in simulation 3.

	 1.600e-002 moles of the following reaction have been added:

	                 Relative
	Reactant            moles

	(CH2O)15N            1.00000

	                 Relative
	Element             moles
	C                   15.00000
	H                   30.00000
	N                    1.00000
	O                   15.00000

-----------------------------------Gas phase-----------------------------------


Total pressure:   1.1000   atmospheres
    Gas volume:  4.95e+000 liters

                                                        Moles in gas
                                            ----------------------------------
Component                log P           P     Initial       Final       Delta

CH4(g)                   -0.24  5.793e-001  0.000e+000  1.173e-001  1.173e-001
CO2(g)                   -0.31  4.939e-001  0.000e+000  1.000e-001  1.000e-001
N2(g)                    -1.57  2.679e-002  0.000e+000  5.424e-003  5.424e-003
NH3(g)                   -7.54  2.912e-008  0.000e+000  5.896e-009  5.896e-009

-----------------------------Solution composition------------------------------

	Elements           Molality       Moles

	C                2.272e-002  2.271e-002
	N                5.152e-003  5.152e-003

----------------------------Description of solution----------------------------

                                       pH  =   5.803      Charge balance
                                       pe  =  -2.589      Adjusted to redox equilibrium
       Specific Conductance (uS/cm, 25 oC) = 580
                          Density (g/cm3)  =   0.99723
                        Activity of water  =   1.000
                           Ionic strength  =  5.123e-003
                       Mass of water (kg)  =  9.998e-001
                 Total alkalinity (eq/kg)  =  5.123e-003
                       Total CO2 (mol/kg)  =  2.192e-002
                      Temperature (deg C)  =  25.000
                  Electrical balance (eq)  = -1.084e-010
 Percent error, 100*(Cat-|An|)/(Cat+|An|)  =  -0.00
                               Iterations  =  24
                                  Total H  = 1.110233e+002
                                  Total O  = 5.554621e+001

----------------------------Distribution of species----------------------------

                                                   Log       Log         Log 
   Species                 Molality    Activity  Molality  Activity     Gamma

   H+                    1.685e-006  1.572e-006    -5.773    -5.803    -0.030
   OH-                   6.877e-009  6.364e-009    -8.163    -8.196    -0.034
   H2O                   5.551e+001  9.995e-001     1.744    -0.000     0.000
C(-4)           7.987e-004
   CH4                   7.987e-004  7.996e-004    -3.098    -3.097     0.001
C(4)            2.192e-002
   CO2                   1.680e-002  1.682e-002    -1.775    -1.774     0.001
   HCO3-                 5.123e-003  4.755e-003    -2.291    -2.323    -0.032
   CO3-2                 1.911e-007  1.418e-007    -6.719    -6.848    -0.129
H(0)            5.274e-010
   H2                    2.637e-010  2.640e-010    -9.579    -9.578     0.001
N(-3)           5.123e-003
   NH4+                  5.121e-003  4.731e-003    -2.291    -2.325    -0.034
   NH3                   1.713e-006  1.715e-006    -5.766    -5.766     0.001
N(0)            2.941e-005
   N2                    1.471e-005  1.472e-005    -4.833    -4.832     0.001
N(3)            0.000e+000
   NO2-                  0.000e+000  0.000e+000   -61.906   -61.940    -0.034
N(5)            0.000e+000
   NO3-                  0.000e+000  0.000e+000   -84.048   -84.082    -0.034
O(0)            0.000e+000
   O2                    0.000e+000  0.000e+000   -73.224   -73.224     0.001

------------------------------Saturation indices-------------------------------

	Phase               SI log IAP  log KT

	CH4(g)           -0.24   -3.10   -2.86  CH4
	CO2(g)           -0.31   -1.77   -1.47  CO2
	H2(g)            -6.43   -9.58   -3.15  H2
	H2O(g)           -1.51   -0.00    1.51  H2O
	N2(g)            -1.57   -4.83   -3.26  N2
	NH3(g)           -7.54   -5.77    1.77  NH3
	O2(g)           -70.33  -73.22   -2.89  O2

Reaction step 10.

Using solution 1.	
Using gas phase 1.	
Using reaction 1.	

Reaction 1.	Irreversible reaction defined in simulation 3.

	 3.200e-002 moles of the following reaction have been added:

	                 Relative
	Reactant            moles

	(CH2O)15N            1.00000

	                 Relative
	Element             moles
	C                   15.00000
	H                   30.00000
	N                    1.00000
	O                   15.00000

-----------------------------------Gas phase-----------------------------------


Total pressure:   1.1000   atmospheres
    Gas volume:  1.04e+001 liters

                                                        Moles in gas
                                            ----------------------------------
Component                log P           P     Initial       Final       Delta

CH4(g)                   -0.26  5.555e-001  0.000e+000  2.372e-001  2.372e-001
CO2(g)                   -0.29  5.133e-001  0.000e+000  2.192e-001  2.192e-001
N2(g)                    -1.51  3.116e-002  0.000e+000  1.331e-002  1.331e-002
NH3(g)                   -7.52  3.047e-008  0.000e+000  1.301e-008  1.301e-008

-----------------------------Solution composition------------------------------

	Elements           Molality       Moles

	C                2.357e-002  2.357e-002
	N                5.385e-003  5.384e-003

----------------------------Description of solution----------------------------

                                       pH  =   5.805      Charge balance
                                       pe  =  -2.586      Adjusted to redox equilibrium
       Specific Conductance (uS/cm, 25 oC) = 606
                          Density (g/cm3)  =   0.99724
                        Activity of water  =   1.000
                           Ionic strength  =  5.351e-003
                       Mass of water (kg)  =  9.998e-001
                 Total alkalinity (eq/kg)  =  5.351e-003
                       Total CO2 (mol/kg)  =  2.281e-002
                      Temperature (deg C)  =  25.000
                  Electrical balance (eq)  = -1.082e-010
 Percent error, 100*(Cat-|An|)/(Cat+|An|)  =  -0.00
                               Iterations  =  25
                                  Total H  = 1.110235e+002
                                  Total O  = 5.554781e+001

----------------------------Distribution of species----------------------------

                                                   Log       Log         Log 
   Species                 Molality    Activity  Molality  Activity     Gamma

   H+                    1.681e-006  1.567e-006    -5.774    -5.805    -0.031
   OH-                   6.913e-009  6.387e-009    -8.160    -8.195    -0.034
   H2O                   5.551e+001  9.995e-001     1.744    -0.000     0.000
C(-4)           7.659e-004
   CH4                   7.659e-004  7.668e-004    -3.116    -3.115     0.001
C(4)            2.281e-002
   CO2                   1.745e-002  1.748e-002    -1.758    -1.758     0.001
   HCO3-                 5.350e-003  4.959e-003    -2.272    -2.305    -0.033
   CO3-2                 2.011e-007  1.484e-007    -6.697    -6.828    -0.132
H(0)            5.169e-010
   H2                    2.584e-010  2.588e-010    -9.588    -9.587     0.001
N(-3)           5.351e-003
   NH4+                  5.349e-003  4.933e-003    -2.272    -2.307    -0.035
   NH3                   1.792e-006  1.794e-006    -5.747    -5.746     0.001
N(0)            3.421e-005
   N2                    1.710e-005  1.713e-005    -4.767    -4.766     0.001
N(3)            0.000e+000
   NO2-                  0.000e+000  0.000e+000   -61.858   -61.893    -0.035
N(5)            0.000e+000
   NO3-                  0.000e+000  0.000e+000   -83.991   -84.026    -0.035
O(0)            0.000e+000
   O2                    0.000e+000  0.000e+000   -73.207   -73.206     0.001

------------------------------Saturation indices-------------------------------

	Phase               SI log IAP  log KT

	CH4(g)           -0.26   -3.12   -2.86  CH4
	CO2(g)           -0.29   -1.76   -1.47  CO2
	H2(g)            -6.44   -9.59   -3.15  H2
	H2O(g)           -1.51   -0.00    1.51  H2O
	N2(g)            -1.51   -4.77   -3.26  N2
	NH3(g)           -7.52   -5.75    1.77  NH3
	O2(g)           -70.31  -73.21   -2.89  O2

Reaction step 11.

Using solution 1.	
Using gas phase 1.	
Using reaction 1.	

Reaction 1.	Irreversible reaction defined in simulation 3.

	 6.400e-002 moles of the following reaction have been added:

	                 Relative
	Reactant            moles

	(CH2O)15N            1.00000

	                 Relative
	Element             moles
	C                   15.00000
	H                   30.00000
	N                    1.00000
	O                   15.00000

-----------------------------------Gas phase-----------------------------------


Total pressure:   1.1000   atmospheres
    Gas volume:  2.15e+001 liters

                                                        Moles in gas
                                            ----------------------------------
Component                log P           P     Initial       Final       Delta

CH4(g)                   -0.26  5.438e-001  0.000e+000  4.772e-001  4.772e-001
CO2(g)                   -0.28  5.229e-001  0.000e+000  4.588e-001  4.588e-001
N2(g)                    -1.48  3.334e-002  0.000e+000  2.925e-002  2.925e-002
NH3(g)                   -7.51  3.105e-008  0.000e+000  2.725e-008  2.725e-008

-----------------------------Solution composition------------------------------

	Elements           Molality       Moles

	C                2.398e-002  2.398e-002
	N                5.492e-003  5.491e-003

----------------------------Description of solution----------------------------

                                       pH  =   5.805      Charge balance
                                       pe  =  -2.584      Adjusted to redox equilibrium
       Specific Conductance (uS/cm, 25 oC) = 617
                          Density (g/cm3)  =   0.99724
                        Activity of water  =   0.999
                           Ionic strength  =  5.455e-003
                       Mass of water (kg)  =  9.998e-001
                 Total alkalinity (eq/kg)  =  5.455e-003
                       Total CO2 (mol/kg)  =  2.323e-002
                      Temperature (deg C)  =  25.000
                  Electrical balance (eq)  = -1.083e-010
 Percent error, 100*(Cat-|An|)/(Cat+|An|)  =  -0.00
                               Iterations  =  27
                                  Total H  = 1.110236e+002
                                  Total O  = 5.554858e+001

----------------------------Distribution of species----------------------------

                                                   Log       Log         Log 
   Species                 Molality    Activity  Molality  Activity     Gamma

   H+                    1.682e-006  1.566e-006    -5.774    -5.805    -0.031
   OH-                   6.919e-009  6.388e-009    -8.160    -8.195    -0.035
   H2O                   5.551e+001  9.995e-001     1.744    -0.000     0.000
C(-4)           7.497e-004
   CH4                   7.497e-004  7.507e-004    -3.125    -3.125     0.001
C(4)            2.323e-002
   CO2                   1.778e-002  1.780e-002    -1.750    -1.750     0.001
   HCO3-                 5.455e-003  5.052e-003    -2.263    -2.297    -0.033
   CO3-2                 2.055e-007  1.513e-007    -6.687    -6.820    -0.133
H(0)            5.117e-010
   H2                    2.559e-010  2.562e-010    -9.592    -9.591     0.001
N(-3)           5.455e-003
   NH4+                  5.453e-003  5.026e-003    -2.263    -2.299    -0.035
   NH3                   1.826e-006  1.829e-006    -5.738    -5.738     0.001
N(0)            3.659e-005
   N2                    1.830e-005  1.832e-005    -4.738    -4.737     0.001
N(3)            0.000e+000
   NO2-                  0.000e+000  0.000e+000   -61.837   -61.872    -0.035
N(5)            0.000e+000
   NO3-                  0.000e+000  0.000e+000   -83.965   -84.000    -0.035
O(0)            0.000e+000
   O2                    0.000e+000  0.000e+000   -73.198   -73.198     0.001

------------------------------Saturation indices-------------------------------

	Phase               SI log IAP  log KT

	CH4(g)           -0.26   -3.12   -2.86  CH4
	CO2(g)           -0.28   -1.75   -1.47  CO2
	H2(g)            -6.44   -9.59   -3.15  H2
	H2O(g)           -1.51   -0.00    1.51  H2O
	N2(g)            -1.48   -4.74   -3.26  N2
	NH3(g)           -7.51   -5.74    1.77  NH3
	O2(g)           -70.31  -73.20   -2.89  O2

Reaction step 12.

Using solution 1.	
Using gas phase 1.	
Using reaction 1.	

Reaction 1.	Irreversible reaction defined in simulation 3.

	 1.280e-001 moles of the following reaction have been added:

	                 Relative
	Reactant            moles

	(CH2O)15N            1.00000

	                 Relative
	Element             moles
	C                   15.00000
	H                   30.00000
	N                    1.00000
	O                   15.00000

-----------------------------------Gas phase-----------------------------------


Total pressure:   1.1000   atmospheres
    Gas volume:  4.35e+001 liters

                                                        Moles in gas
                                            ----------------------------------
Component                log P           P     Initial       Final       Delta

CH4(g)                   -0.27  5.380e-001  0.000e+000  9.572e-001  9.572e-001
CO2(g)                   -0.28  5.276e-001  0.000e+000  9.386e-001  9.386e-001
N2(g)                    -1.46  3.442e-002  0.000e+000  6.123e-002  6.123e-002
NH3(g)                   -7.50  3.132e-008  0.000e+000  5.572e-008  5.572e-008

-----------------------------Solution composition------------------------------

	Elements           Molality       Moles

	C                2.418e-002  2.418e-002
	N                5.543e-003  5.542e-003

----------------------------Description of solution----------------------------

                                       pH  =   5.805      Charge balance
                                       pe  =  -2.583      Adjusted to redox equilibrium
       Specific Conductance (uS/cm, 25 oC) = 623
                          Density (g/cm3)  =   0.99724
                        Activity of water  =   0.999
                           Ionic strength  =  5.505e-003
                       Mass of water (kg)  =  9.998e-001
                 Total alkalinity (eq/kg)  =  5.505e-003
                       Total CO2 (mol/kg)  =  2.344e-002
                      Temperature (deg C)  =  25.000
                  Electrical balance (eq)  = -1.088e-010
 Percent error, 100*(Cat-|An|)/(Cat+|An|)  =  -0.00
                               Iterations  =  26
                                  Total H  = 1.110237e+002
                                  Total O  = 5.554897e+001

----------------------------Distribution of species----------------------------

                                                   Log       Log         Log 
   Species                 Molality    Activity  Molality  Activity     Gamma

   H+                    1.682e-006  1.567e-006    -5.774    -5.805    -0.031
   OH-                   6.920e-009  6.387e-009    -8.160    -8.195    -0.035
   H2O                   5.551e+001  9.995e-001     1.744    -0.000     0.000
C(-4)           7.417e-004
   CH4                   7.417e-004  7.427e-004    -3.130    -3.129     0.001
C(4)            2.344e-002
   CO2                   1.794e-002  1.796e-002    -1.746    -1.746     0.001
   HCO3-                 5.504e-003  5.097e-003    -2.259    -2.293    -0.033
   CO3-2                 2.075e-007  1.526e-007    -6.683    -6.817    -0.134
H(0)            5.092e-010
   H2                    2.546e-010  2.549e-010    -9.594    -9.594     0.001
N(-3)           5.505e-003
   NH4+                  5.503e-003  5.070e-003    -2.259    -2.295    -0.036
   NH3                   1.842e-006  1.844e-006    -5.735    -5.734     0.001
N(0)            3.778e-005
   N2                    1.889e-005  1.891e-005    -4.724    -4.723     0.001
N(3)            0.000e+000
   NO2-                  0.000e+000  0.000e+000   -61.826   -61.862    -0.035
N(5)            0.000e+000
   NO3-                  0.000e+000  0.000e+000   -83.953   -83.988    -0.035
O(0)            0.000e+000
   O2                    0.000e+000  0.000e+000   -73.194   -73.193     0.001

------------------------------Saturation indices-------------------------------

	Phase               SI log IAP  log KT

	CH4(g)           -0.27   -3.13   -2.86  CH4
	CO2(g)           -0.28   -1.75   -1.47  CO2
	H2(g)            -6.44   -9.59   -3.15  H2
	H2O(g)           -1.51   -0.00    1.51  H2O
	N2(g)            -1.46   -4.72   -3.26  N2
	NH3(g)           -7.50   -5.73    1.77  NH3
	O2(g)           -70.30  -73.19   -2.89  O2

------------------
End of simulation.
------------------

------------------------------------
Reading input data for simulation 4.
------------------------------------

	USE solution 1
	USE reaction 1
	USE gas_phase 2
	END
-----------------------------------------
Beginning of batch-reaction calculations.
-----------------------------------------

Reaction step 1.

Using solution 1.	
Using gas phase 2.	
Using reaction 1.	

Reaction 1.	Irreversible reaction defined in simulation 4.

	 1.000e-004 moles of the following reaction have been added:

	                 Relative
	Reactant            moles

	(CH2O)15N            1.00000

	                 Relative
	Element             moles
	C                   15.00000
	H                   30.00000
	N                    1.00000
	O                   15.00000

-----------------------------Solution composition------------------------------

	Elements           Molality       Moles

	C                1.500e-003  1.500e-003
	N                1.000e-004  1.000e-004

----------------------------Description of solution----------------------------

                                       pH  =   5.524      Charge balance
                                       pe  =  -2.478      Adjusted to redox equilibrium
       Specific Conductance (uS/cm, 25 oC) = 12
                          Density (g/cm3)  =   0.99706
                        Activity of water  =   1.000
                           Ionic strength  =  1.030e-004
                       Mass of water (kg)  =  1.000e+000
                 Total alkalinity (eq/kg)  =  1.000e-004
                       Total CO2 (mol/kg)  =  7.875e-004
                      Temperature (deg C)  =  25.000
                  Electrical balance (eq)  = -1.084e-010
 Percent error, 100*(Cat-|An|)/(Cat+|An|)  =  -0.00
                               Iterations  =  14
                                  Total H  = 1.110154e+002
                                  Total O  = 5.550772e+001

----------------------------Distribution of species----------------------------

                                                   Log       Log         Log 
   Species                 Molality    Activity  Molality  Activity     Gamma

   H+                    3.025e-006  2.991e-006    -5.519    -5.524    -0.005
   OH-                   3.387e-009  3.347e-009    -8.470    -8.475    -0.005
   H2O                   5.551e+001  1.000e+000     1.744    -0.000     0.000
C(-4)           7.125e-004
   CH4                   7.125e-004  7.125e-004    -3.147    -3.147     0.000
C(4)            7.875e-004
   CO2                   6.845e-004  6.845e-004    -3.165    -3.165     0.000
   HCO3-                 1.030e-004  1.018e-004    -3.987    -3.992    -0.005
   CO3-2                 1.673e-009  1.596e-009    -8.777    -8.797    -0.020
H(0)            1.142e-009
   H2                    5.712e-010  5.712e-010    -9.243    -9.243     0.000
N(-3)           1.000e-004
   NH4+                  9.998e-005  9.881e-005    -4.000    -4.005    -0.005
   NH3                   1.883e-008  1.883e-008    -7.725    -7.725     0.000
N(0)            3.506e-010
   N2                    1.753e-010  1.753e-010    -9.756    -9.756     0.000
N(3)            0.000e+000
   NO2-                  0.000e+000  0.000e+000   -65.179   -65.184    -0.005
N(5)            0.000e+000
   NO3-                  0.000e+000  0.000e+000   -87.656   -87.661    -0.005
O(0)            0.000e+000
   O2                    0.000e+000  0.000e+000   -73.894   -73.894     0.000

------------------------------Saturation indices-------------------------------

	Phase               SI log IAP  log KT

	CH4(g)           -0.29   -3.15   -2.86  CH4
	CO2(g)           -1.70   -3.16   -1.47  CO2
	H2(g)            -6.09   -9.24   -3.15  H2
	H2O(g)           -1.51   -0.00    1.51  H2O
	N2(g)            -6.50   -9.76   -3.26  N2
	NH3(g)           -9.50   -7.73    1.77  NH3
	O2(g)           -71.00  -73.89   -2.89  O2

Reaction step 2.

Using solution 1.	
Using gas phase 2.	
Using reaction 1.	

Reaction 1.	Irreversible reaction defined in simulation 4.

	 2.000e-004 moles of the following reaction have been added:

	                 Relative
	Reactant            moles

	(CH2O)15N            1.00000

	                 Relative
	Element             moles
	C                   15.00000
	H                   30.00000
	N                    1.00000
	O                   15.00000

-----------------------------Solution composition------------------------------

	Elements           Molality       Moles

	C                3.000e-003  3.000e-003
	N                2.000e-004  2.000e-004

----------------------------Description of solution----------------------------

                                       pH  =   5.515      Charge balance
                                       pe  =  -2.468      Adjusted to redox equilibrium
       Specific Conductance (uS/cm, 25 oC) = 24
                          Density (g/cm3)  =   0.99708
                        Activity of water  =   1.000
                           Ionic strength  =  2.031e-004
                       Mass of water (kg)  =  1.000e+000
                 Total alkalinity (eq/kg)  =  2.000e-004
                       Total CO2 (mol/kg)  =  1.575e-003
                      Temperature (deg C)  =  25.000
                  Electrical balance (eq)  = -1.082e-010
 Percent error, 100*(Cat-|An|)/(Cat+|An|)  =  -0.00
                               Iterations  =  15
                                  Total H  = 1.110184e+002
                                  Total O  = 5.550922e+001

----------------------------Distribution of species----------------------------

                                                   Log       Log         Log 
   Species                 Molality    Activity  Molality  Activity     Gamma

   H+                    3.104e-006  3.054e-006    -5.508    -5.515    -0.007
   OH-                   3.332e-009  3.277e-009    -8.477    -8.484    -0.007
   H2O                   5.551e+001  9.999e-001     1.744    -0.000     0.000
C(-4)           1.425e-003
   CH4                   1.425e-003  1.425e-003    -2.846    -2.846     0.000
C(4)            1.575e-003
   CO2                   1.372e-003  1.372e-003    -2.863    -2.863     0.000
   HCO3-                 2.031e-004  1.998e-004    -3.692    -3.699    -0.007
   CO3-2                 3.274e-009  3.067e-009    -8.485    -8.513    -0.028
H(0)            1.142e-009
   H2                    5.708e-010  5.709e-010    -9.243    -9.243     0.000
N(-3)           2.000e-004
   NH4+                  2.000e-004  1.967e-004    -3.699    -3.706    -0.007
   NH3                   3.669e-008  3.670e-008    -7.435    -7.435     0.000
N(0)            1.334e-009
   N2                    6.669e-010  6.669e-010    -9.176    -9.176     0.000
N(3)            0.000e+000
   NO2-                  0.000e+000  0.000e+000   -64.896   -64.903    -0.007
N(5)            0.000e+000
   NO3-                  0.000e+000  0.000e+000   -87.372   -87.379    -0.007
O(0)            0.000e+000
   O2                    0.000e+000  0.000e+000   -73.893   -73.893     0.000

------------------------------Saturation indices-------------------------------

	Phase               SI log IAP  log KT

	CH4(g)            0.01   -2.85   -2.86  CH4
	CO2(g)           -1.39   -2.86   -1.47  CO2
	H2(g)            -6.09   -9.24   -3.15  H2
	H2O(g)           -1.51   -0.00    1.51  H2O
	N2(g)            -5.92   -9.18   -3.26  N2
	NH3(g)           -9.21   -7.44    1.77  NH3
	O2(g)           -71.00  -73.89   -2.89  O2

Reaction step 3.

Using solution 1.	
Using gas phase 2.	
Using reaction 1.	

Reaction 1.	Irreversible reaction defined in simulation 4.

	 4.000e-004 moles of the following reaction have been added:

	                 Relative
	Reactant            moles

	(CH2O)15N            1.00000

	                 Relative
	Element             moles
	C                   15.00000
	H                   30.00000
	N                    1.00000
	O                   15.00000

-----------------------------------Gas phase-----------------------------------


Total pressure:   1.1000   atmospheres
    Gas volume:  3.44e-002 liters

                                                        Moles in gas
                                            ----------------------------------
Component                log P           P     Initial       Final       Delta

CH4(g)                    0.01  1.023e+000  0.000e+000  1.439e-003  1.439e-003
CO2(g)                   -1.11  7.749e-002  0.000e+000  1.090e-004  1.090e-004
NH3(g)                   -8.90  1.270e-009  0.000e+000  1.786e-012  1.786e-012

-----------------------------Solution composition------------------------------

	Elements           Molality       Moles

	C                4.452e-003  4.452e-003
	N                4.000e-004  4.000e-004

----------------------------Description of solution----------------------------

                                       pH  =   5.526      Charge balance
                                       pe  =  -2.443      Adjusted to redox equilibrium
       Specific Conductance (uS/cm, 25 oC) = 47
                          Density (g/cm3)  =   0.99708
                        Activity of water  =   1.000
                           Ionic strength  =  4.030e-004
                       Mass of water (kg)  =  1.000e+000
                 Total alkalinity (eq/kg)  =  4.000e-004
                       Total CO2 (mol/kg)  =  3.041e-003
                      Temperature (deg C)  =  25.000
                  Electrical balance (eq)  = -1.082e-010
 Percent error, 100*(Cat-|An|)/(Cat+|An|)  =  -0.00
                               Iterations  =  22
                                  Total H  = 1.110187e+002
                                  Total O  = 5.551200e+001

----------------------------Distribution of species----------------------------

                                                   Log       Log         Log 
   Species                 Molality    Activity  Molality  Activity     Gamma

   H+                    3.046e-006  2.979e-006    -5.516    -5.526    -0.010
   OH-                   3.439e-009  3.360e-009    -8.464    -8.474    -0.010
   H2O                   5.551e+001  9.999e-001     1.744    -0.000     0.000
C(-4)           1.411e-003
   CH4                   1.411e-003  1.411e-003    -2.850    -2.850     0.000
C(4)            3.041e-003
   CO2                   2.638e-003  2.638e-003    -2.579    -2.579     0.000
   HCO3-                 4.030e-004  3.939e-004    -3.395    -3.405    -0.010
   CO3-2                 6.792e-009  6.201e-009    -8.168    -8.208    -0.039
H(0)            9.671e-010
   H2                    4.836e-010  4.836e-010    -9.316    -9.316     0.000
N(-3)           4.000e-004
   NH4+                  3.999e-004  3.908e-004    -3.398    -3.408    -0.010
   NH3                   7.475e-008  7.476e-008    -7.126    -7.126     0.000
N(0)            9.104e-009
   N2                    4.552e-009  4.553e-009    -8.342    -8.342     0.000
N(3)            0.000e+000
   NO2-                  0.000e+000  0.000e+000   -64.357   -64.367    -0.010
N(5)            0.000e+000
   NO3-                  0.000e+000  0.000e+000   -86.761   -86.771    -0.010
O(0)            0.000e+000
   O2                    0.000e+000  0.000e+000   -73.749   -73.749     0.000

------------------------------Saturation indices-------------------------------

	Phase               SI log IAP  log KT

	CH4(g)            0.01   -2.85   -2.86  CH4
	CO2(g)           -1.11   -2.58   -1.47  CO2
	H2(g)            -6.17   -9.32   -3.15  H2
	H2O(g)           -1.51   -0.00    1.51  H2O
	N2(g)            -5.08   -8.34   -3.26  N2
	NH3(g)           -8.90   -7.13    1.77  NH3
	O2(g)           -70.86  -73.75   -2.89  O2

Reaction step 4.

Using solution 1.	
Using gas phase 2.	
Using reaction 1.	

Reaction 1.	Irreversible reaction defined in simulation 4.

	 8.000e-004 moles of the following reaction have been added:

	                 Relative
	Reactant            moles

	(CH2O)15N            1.00000

	                 Relative
	Element             moles
	C                   15.00000
	H                   30.00000
	N                    1.00000
	O                   15.00000

-----------------------------------Gas phase-----------------------------------


Total pressure:   1.1000   atmospheres
    Gas volume:  1.12e-001 liters

                                                        Moles in gas
                                            ----------------------------------
Component                log P           P     Initial       Final       Delta

CH4(g)                   -0.02  9.576e-001  0.000e+000  4.378e-003  4.378e-003
CO2(g)                   -0.85  1.424e-001  0.000e+000  6.510e-004  6.510e-004
NH3(g)                   -8.57  2.703e-009  0.000e+000  1.236e-011  1.236e-011

-----------------------------Solution composition------------------------------

	Elements           Molality       Moles

	C                6.971e-003  6.971e-003
	N                8.000e-004  8.000e-004

----------------------------Description of solution----------------------------

                                       pH  =   5.557      Charge balance
                                       pe  =  -2.438      Adjusted to redox equilibrium
       Specific Conductance (uS/cm, 25 oC) = 94
                          Density (g/cm3)  =   0.99710
                        Activity of water  =   1.000
                           Ionic strength  =  8.027e-004
                       Mass of water (kg)  =  1.000e+000
                 Total alkalinity (eq/kg)  =  8.000e-004
                       Total CO2 (mol/kg)  =  5.649e-003
                      Temperature (deg C)  =  25.000
                  Electrical balance (eq)  = -1.082e-010
 Percent error, 100*(Cat-|An|)/(Cat+|An|)  =  -0.00
                               Iterations  =  22
                                  Total H  = 1.110189e+002
                                  Total O  = 5.551691e+001

----------------------------Distribution of species----------------------------

                                                   Log       Log         Log 
   Species                 Molality    Activity  Molality  Activity     Gamma

   H+                    2.858e-006  2.772e-006    -5.544    -5.557    -0.013
   OH-                   3.729e-009  3.611e-009    -8.428    -8.442    -0.014
   H2O                   5.551e+001  9.999e-001     1.744    -0.000     0.000
C(-4)           1.322e-003
   CH4                   1.322e-003  1.322e-003    -2.879    -2.879     0.000
C(4)            5.649e-003
   CO2                   4.846e-003  4.847e-003    -2.315    -2.314     0.000
   HCO3-                 8.026e-004  7.776e-004    -3.095    -3.109    -0.014
   CO3-2                 1.493e-008  1.316e-008    -7.826    -7.881    -0.055
H(0)            8.171e-010
   H2                    4.085e-010  4.086e-010    -9.389    -9.389     0.000
N(-3)           8.000e-004
   NH4+                  7.998e-004  7.742e-004    -3.097    -3.111    -0.014
   NH3                   1.591e-007  1.592e-007    -6.798    -6.798     0.000
N(0)            6.841e-008
   N2                    3.420e-008  3.421e-008    -7.466    -7.466     0.000
N(3)            0.000e+000
   NO2-                  0.000e+000  0.000e+000   -63.774   -63.788    -0.014
N(5)            0.000e+000
   NO3-                  0.000e+000  0.000e+000   -86.105   -86.119    -0.014
O(0)            0.000e+000
   O2                    0.000e+000  0.000e+000   -73.603   -73.603     0.000

------------------------------Saturation indices-------------------------------

	Phase               SI log IAP  log KT

	CH4(g)           -0.02   -2.88   -2.86  CH4
	CO2(g)           -0.85   -2.31   -1.47  CO2
	H2(g)            -6.24   -9.39   -3.15  H2
	H2O(g)           -1.51   -0.00    1.51  H2O
	N2(g)            -4.21   -7.47   -3.26  N2
	NH3(g)           -8.57   -6.80    1.77  NH3
	O2(g)           -70.71  -73.60   -2.89  O2

Reaction step 5.

Using solution 1.	
Using gas phase 2.	
Using reaction 1.	

Reaction 1.	Irreversible reaction defined in simulation 4.

	 1.000e-003 moles of the following reaction have been added:

	                 Relative
	Reactant            moles

	(CH2O)15N            1.00000

	                 Relative
	Element             moles
	C                   15.00000
	H                   30.00000
	N                    1.00000
	O                   15.00000

-----------------------------------Gas phase-----------------------------------


Total pressure:   1.1000   atmospheres
    Gas volume:  1.54e-001 liters

                                                        Moles in gas
                                            ----------------------------------
Component                log P           P     Initial       Final       Delta

CH4(g)                   -0.03  9.296e-001  0.000e+000  5.842e-003  5.842e-003
CO2(g)                   -0.77  1.704e-001  0.000e+000  1.071e-003  1.071e-003
NH3(g)                   -8.46  3.499e-009  0.000e+000  2.199e-011  2.199e-011

-----------------------------Solution composition------------------------------

	Elements           Molality       Moles

	C                8.087e-003  8.087e-003
	N                1.000e-003  1.000e-003

----------------------------Description of solution----------------------------

                                       pH  =   5.574      Charge balance
                                       pe  =  -2.443      Adjusted to redox equilibrium
       Specific Conductance (uS/cm, 25 oC) = 117
                          Density (g/cm3)  =   0.99710
                        Activity of water  =   1.000
                           Ionic strength  =  1.002e-003
                       Mass of water (kg)  =  1.000e+000
                 Total alkalinity (eq/kg)  =  9.999e-004
                       Total CO2 (mol/kg)  =  6.804e-003
                      Temperature (deg C)  =  25.000
                  Electrical balance (eq)  = -1.082e-010
 Percent error, 100*(Cat-|An|)/(Cat+|An|)  =  -0.00
                               Iterations  =  22
                                  Total H  = 1.110191e+002
                                  Total O  = 5.551907e+001

----------------------------Distribution of species----------------------------

                                                   Log       Log         Log 
   Species                 Molality    Activity  Molality  Activity     Gamma

   H+                    2.759e-006  2.666e-006    -5.559    -5.574    -0.015
   OH-                   3.891e-009  3.754e-009    -8.410    -8.426    -0.016
   H2O                   5.551e+001  9.998e-001     1.744    -0.000     0.000
C(-4)           1.283e-003
   CH4                   1.283e-003  1.283e-003    -2.892    -2.892     0.000
C(4)            6.804e-003
   CO2                   5.802e-003  5.803e-003    -2.236    -2.236     0.000
   HCO3-                 1.002e-003  9.678e-004    -2.999    -3.014    -0.015
   CO3-2                 1.959e-008  1.702e-008    -7.708    -7.769    -0.061
H(0)            7.753e-010
   H2                    3.877e-010  3.878e-010    -9.412    -9.411     0.000
N(-3)           9.999e-004
   NH4+                  9.997e-004  9.642e-004    -3.000    -3.016    -0.016
   NH3                   2.060e-007  2.061e-007    -6.686    -6.686     0.000
N(0)            1.342e-007
   N2                    6.709e-008  6.711e-008    -7.173    -7.173     0.000
N(3)            0.000e+000
   NO2-                  0.000e+000  0.000e+000   -63.575   -63.591    -0.016
N(5)            0.000e+000
   NO3-                  0.000e+000  0.000e+000   -85.884   -85.899    -0.016
O(0)            0.000e+000
   O2                    0.000e+000  0.000e+000   -73.557   -73.557     0.000

------------------------------Saturation indices-------------------------------

	Phase               SI log IAP  log KT

	CH4(g)           -0.03   -2.89   -2.86  CH4
	CO2(g)           -0.77   -2.24   -1.47  CO2
	H2(g)            -6.26   -9.41   -3.15  H2
	H2O(g)           -1.51   -0.00    1.51  H2O
	N2(g)            -3.91   -7.17   -3.26  N2
	NH3(g)           -8.46   -6.69    1.77  NH3
	O2(g)           -70.66  -73.56   -2.89  O2

Reaction step 6.

Using solution 1.	
Using gas phase 2.	
Using reaction 1.	

Reaction 1.	Irreversible reaction defined in simulation 4.

	 2.000e-003 moles of the following reaction have been added:

	                 Relative
	Reactant            moles

	(CH2O)15N            1.00000

[...]
	Ca               3.495e-003  3.494e-003
	N                1.601e-002  1.600e-002

----------------------------Description of solution----------------------------

                                       pH  =   6.366      Charge balance
                                       pe  =  -3.153      Adjusted to redox equilibrium
       Specific Conductance (uS/cm, 25 oC) = 2047
                          Density (g/cm3)  =   0.99798
                        Activity of water  =   0.999
                           Ionic strength  =  2.324e-002
                       Mass of water (kg)  =  9.995e-001
                 Total alkalinity (eq/kg)  =  2.067e-002
                       Total CO2 (mol/kg)  =  3.754e-002
                      Temperature (deg C)  =  25.000
                  Electrical balance (eq)  = -3.589e-011
 Percent error, 100*(Cat-|An|)/(Cat+|An|)  =  -0.00
                               Iterations  =  18
                                  Total H  = 1.110362e+002
                                  Total O  = 5.557450e+001

----------------------------Distribution of species----------------------------

                                                   Log       Log         Log 
   Species                 Molality    Activity  Molality  Activity     Gamma

   H+                    4.868e-007  4.303e-007    -6.313    -6.366    -0.054
   OH-                   2.706e-008  2.324e-008    -7.568    -7.634    -0.066
   H2O                   5.551e+001  9.990e-001     1.744    -0.000     0.000
C(-4)           8.253e-004
   CH4                   8.253e-004  8.297e-004    -3.083    -3.081     0.002
C(4)            3.754e-002
   HCO3-                 2.019e-002  1.754e-002    -1.695    -1.756    -0.061
   CO2                   1.690e-002  1.699e-002    -1.772    -1.770     0.002
   CaHCO3+               4.464e-004  3.878e-004    -3.350    -3.411    -0.061
   CaCO3                 5.535e-006  5.565e-006    -5.257    -5.255     0.002
   CO3-2                 3.357e-006  1.912e-006    -5.474    -5.719    -0.245
Ca              3.495e-003
   Ca+2                  3.043e-003  1.733e-003    -2.517    -2.761    -0.245
   CaHCO3+               4.464e-004  3.878e-004    -3.350    -3.411    -0.061
   CaCO3                 5.535e-006  5.565e-006    -5.257    -5.255     0.002
   CaOH+                 7.734e-010  6.677e-010    -9.112    -9.175    -0.064
H(0)            5.286e-010
   H2                    2.643e-010  2.657e-010    -9.578    -9.576     0.002
N(-3)           1.368e-002
   NH4+                  1.366e-002  1.166e-002    -1.864    -1.933    -0.069
   NH3                   1.536e-005  1.544e-005    -4.814    -4.811     0.002
N(0)            2.328e-003
   N2                    1.164e-003  1.170e-003    -2.934    -2.932     0.002
N(3)            0.000e+000
   NO2-                  0.000e+000  0.000e+000   -60.365   -60.432    -0.068
N(5)            0.000e+000
   NO3-                  0.000e+000  0.000e+000   -82.509   -82.577    -0.068
O(0)            0.000e+000
   O2                    0.000e+000  0.000e+000   -73.232   -73.230     0.002

------------------------------Saturation indices-------------------------------

	Phase               SI log IAP  log KT

	Aragonite        -0.14   -8.48   -8.34  CaCO3
	Calcite           0.00   -8.48   -8.48  CaCO3
	CH4(g)           -0.22   -3.08   -2.86  CH4
	CO2(g)           -0.30   -1.77   -1.47  CO2
	H2(g)            -6.43   -9.58   -3.15  H2
	H2O(g)           -1.51   -0.00    1.51  H2O
	N2(g)             0.33   -2.93   -3.26  N2
	NH3(g)           -6.58   -4.81    1.77  NH3
	O2(g)           -70.34  -73.23   -2.89  O2

Reaction step 10.

Using solution 2.	Solution after simulation 1.
Using pure phase assemblage 1.	
Using gas phase 2.	
Using reaction 1.	

Reaction 1.	Irreversible reaction defined in simulation 10.

	 3.200e-002 moles of the following reaction have been added:

	                 Relative
	Reactant            moles

	(CH2O)15N            1.00000

	                 Relative
	Element             moles
	C                   15.00000
	H                   30.00000
	N                    1.00000
	O                   15.00000

-----------------------------------Gas phase-----------------------------------


Total pressure:   1.1000   atmospheres
    Gas volume:  9.80e+000 liters

                                                        Moles in gas
                                            ----------------------------------
Component                log P           P     Initial       Final       Delta

CH4(g)                   -0.24  5.765e-001  0.000e+000  2.309e-001  2.309e-001
CO2(g)                   -0.28  5.235e-001  0.000e+000  2.097e-001  2.097e-001
NH3(g)                   -6.28  5.197e-007  0.000e+000  2.082e-007  2.082e-007

-------------------------------Phase assemblage--------------------------------

                                                      Moles in assemblage
Phase                  SI log IAP  log KT      Initial       Final       Delta

Calcite              0.00   -8.48   -8.48   1.000e+001  1.000e+001  1.510e-004

-----------------------------Solution composition------------------------------

	Elements           Molality       Moles

	C                4.540e-002  4.537e-002
	Ca               2.353e-003  2.351e-003
	N                3.202e-002  3.200e-002

----------------------------Description of solution----------------------------

                                       pH  =   6.459      Charge balance
                                       pe  =  -3.241      Adjusted to redox equilibrium
       Specific Conductance (uS/cm, 25 oC) = 2756
                          Density (g/cm3)  =   0.99816
                        Activity of water  =   0.999
                           Ionic strength  =  2.853e-002
                       Mass of water (kg)  =  9.993e-001
                 Total alkalinity (eq/kg)  =  2.695e-002
                       Total CO2 (mol/kg)  =  4.461e-002
                      Temperature (deg C)  =  25.000
                  Electrical balance (eq)  = -1.075e-010
 Percent error, 100*(Cat-|An|)/(Cat+|An|)  =  -0.00
                               Iterations  =  20
                                  Total H  = 1.110489e+002
                                  Total O  = 5.558106e+001

----------------------------Distribution of species----------------------------

                                                   Log       Log         Log 
   Species                 Molality    Activity  Molality  Activity     Gamma

   H+                    3.967e-007  3.476e-007    -6.402    -6.459    -0.057
   OH-                   3.396e-008  2.877e-008    -7.469    -7.541    -0.072
   H2O                   5.551e+001  9.987e-001     1.744    -0.001     0.000
C(-4)           7.905e-004
   CH4                   7.905e-004  7.957e-004    -3.102    -3.099     0.003
C(4)            4.461e-002
   HCO3-                 2.653e-002  2.278e-002    -1.576    -1.642    -0.066
   CO2                   1.771e-002  1.782e-002    -1.752    -1.749     0.003
   CaHCO3+               3.648e-004  3.132e-004    -3.438    -3.504    -0.066
   CO3-2                 5.655e-006  3.074e-006    -5.248    -5.512    -0.265
   CaCO3                 5.528e-006  5.565e-006    -5.257    -5.255     0.003
Ca              2.353e-003
   Ca+2                  1.982e-003  1.078e-003    -2.703    -2.967    -0.265
   CaHCO3+               3.648e-004  3.132e-004    -3.438    -3.504    -0.066
   CaCO3                 5.528e-006  5.565e-006    -5.257    -5.255     0.003
   CaOH+                 6.028e-010  5.140e-010    -9.220    -9.289    -0.069
H(0)            5.161e-010
   H2                    2.581e-010  2.598e-010    -9.588    -9.585     0.003
N(-3)           2.224e-002
   NH4+                  2.221e-002  1.867e-002    -1.653    -1.729    -0.076
   NH3                   3.040e-005  3.060e-005    -4.517    -4.514     0.003
N(0)            9.781e-003
   N2                    4.891e-003  4.923e-003    -2.311    -2.308     0.003
N(3)            0.000e+000
   NO2-                  0.000e+000  0.000e+000   -59.939   -60.013    -0.074
N(5)            0.000e+000
   NO3-                  0.000e+000  0.000e+000   -82.074   -82.148    -0.074
O(0)            0.000e+000
   O2                    0.000e+000  0.000e+000   -73.213   -73.210     0.003

------------------------------Saturation indices-------------------------------

	Phase               SI log IAP  log KT

	Aragonite        -0.14   -8.48   -8.34  CaCO3
	Calcite           0.00   -8.48   -8.48  CaCO3
	CH4(g)           -0.24   -3.10   -2.86  CH4
	CO2(g)           -0.28   -1.75   -1.47  CO2
	H2(g)            -6.44   -9.59   -3.15  H2
	H2O(g)           -1.51   -0.00    1.51  H2O
	N2(g)             0.95   -2.31   -3.26  N2
	NH3(g)           -6.28   -4.51    1.77  NH3
	O2(g)           -70.32  -73.21   -2.89  O2

Reaction step 11.

Using solution 2.	Solution after simulation 1.
Using pure phase assemblage 1.	
Using gas phase 2.	
Using reaction 1.	

Reaction 1.	Irreversible reaction defined in simulation 10.

	 6.400e-002 moles of the following reaction have been added:

	                 Relative
	Reactant            moles

	(CH2O)15N            1.00000

	                 Relative
	Element             moles
	C                   15.00000
	H                   30.00000
	N                    1.00000
	O                   15.00000

-----------------------------------Gas phase-----------------------------------


Total pressure:   1.1000   atmospheres
    Gas volume:  2.03e+001 liters

                                                        Moles in gas
                                            ----------------------------------
Component                log P           P     Initial       Final       Delta

CH4(g)                   -0.25  5.640e-001  0.000e+000  4.672e-001  4.672e-001
CO2(g)                   -0.27  5.360e-001  0.000e+000  4.440e-001  4.440e-001
NH3(g)                   -6.03  9.259e-007  0.000e+000  7.670e-007  7.670e-007

-------------------------------Phase assemblage--------------------------------

                                                      Moles in assemblage
Phase                  SI log IAP  log KT      Initial       Final       Delta

Calcite              0.00   -8.48   -8.48   1.000e+001  1.000e+001  9.201e-004

-----------------------------Solution composition------------------------------

	Elements           Molality       Moles

	C                5.395e-002  5.389e-002
	Ca               1.584e-003  1.582e-003
	N                6.407e-002  6.400e-002

----------------------------Description of solution----------------------------

                                       pH  =   6.560      Charge balance
                                       pe  =  -3.340      Adjusted to redox equilibrium
       Specific Conductance (uS/cm, 25 oC) = 3636
                          Density (g/cm3)  =   0.99852
                        Activity of water  =   0.998
                           Ionic strength  =  3.609e-002
                       Mass of water (kg)  =  9.990e-001
                 Total alkalinity (eq/kg)  =  3.515e-002
                       Total CO2 (mol/kg)  =  5.318e-002
                      Temperature (deg C)  =  25.000
                  Electrical balance (eq)  = -1.075e-010
 Percent error, 100*(Cat-|An|)/(Cat+|An|)  =  -0.00
                               Iterations  =  22
                                  Total H  = 1.110634e+002
                                  Total O  = 5.559008e+001

----------------------------Distribution of species----------------------------

                                                   Log       Log         Log 
   Species                 Molality    Activity  Molality  Activity     Gamma

   H+                    3.175e-007  2.752e-007    -6.498    -6.560    -0.062
   OH-                   4.359e-008  3.631e-008    -7.361    -7.440    -0.079
   H2O                   5.551e+001  9.982e-001     1.744    -0.001     0.000
C(-4)           7.721e-004
   CH4                   7.721e-004  7.786e-004    -3.112    -3.109     0.004
C(4)            5.318e-002
   HCO3-                 3.477e-002  2.944e-002    -1.459    -1.531    -0.072
   CO2                   1.810e-002  1.825e-002    -1.742    -1.739     0.004
   CaHCO3+               2.930e-004  2.480e-004    -3.533    -3.605    -0.072
   CO3-2                 9.768e-006  5.015e-006    -5.010    -5.300    -0.290
   CaCO3                 5.519e-006  5.565e-006    -5.258    -5.255     0.004
Ca              1.584e-003
   Ca+2                  1.285e-003  6.605e-004    -2.891    -3.180    -0.289
   CaHCO3+               2.930e-004  2.480e-004    -3.533    -3.605    -0.072
   CaCO3                 5.519e-006  5.565e-006    -5.258    -5.255     0.004
   CaOH+                 4.734e-010  3.976e-010    -9.325    -9.401    -0.076
H(0)            5.093e-010
   H2                    2.547e-010  2.568e-010    -9.594    -9.590     0.004
N(-3)           3.198e-002
   NH4+                  3.193e-002  2.633e-002    -1.496    -1.580    -0.084
   NH3                   5.407e-005  5.452e-005    -4.267    -4.263     0.004
N(0)            3.208e-002
   N2                    1.604e-002  1.617e-002    -1.795    -1.791     0.004
N(3)            0.000e+000
   NO2-                  0.000e+000  0.000e+000   -59.565   -59.646    -0.082
N(5)            0.000e+000
   NO3-                  0.000e+000  0.000e+000   -81.695   -81.777    -0.082
O(0)            0.000e+000
   O2                    0.000e+000  0.000e+000   -73.204   -73.201     0.004

------------------------------Saturation indices-------------------------------

	Phase               SI log IAP  log KT

	Aragonite        -0.14   -8.48   -8.34  CaCO3
	Calcite           0.00   -8.48   -8.48  CaCO3
	CH4(g)           -0.25   -3.11   -2.86  CH4
	CO2(g)           -0.27   -1.74   -1.47  CO2
	H2(g)            -6.44   -9.59   -3.15  H2
	H2O(g)           -1.51   -0.00    1.51  H2O
	N2(g)             1.47   -1.79   -3.26  N2
	NH3(g)           -6.03   -4.26    1.77  NH3
	O2(g)           -70.31  -73.20   -2.89  O2

Reaction step 12.

Using solution 2.	Solution after simulation 1.
Using pure phase assemblage 1.	
Using gas phase 2.	
Using reaction 1.	

Reaction 1.	Irreversible reaction defined in simulation 10.

	 1.280e-001 moles of the following reaction have been added:

	                 Relative
	Reactant            moles

	(CH2O)15N            1.00000

	                 Relative
	Element             moles
	C                   15.00000
	H                   30.00000
	N                    1.00000
	O                   15.00000

-----------------------------------Gas phase-----------------------------------


Total pressure:   1.1000   atmospheres
    Gas volume:  4.14e+001 liters

                                                        Moles in gas
                                            ----------------------------------
Component                log P           P     Initial       Final       Delta

CH4(g)                   -0.25  5.575e-001  0.000e+000  9.433e-001  9.433e-001
CO2(g)                   -0.27  5.425e-001  0.000e+000  9.178e-001  9.178e-001
NH3(g)                   -5.82  1.500e-006  0.000e+000  2.538e-006  2.538e-006

-------------------------------Phase assemblage--------------------------------

                                                      Moles in assemblage
Phase                  SI log IAP  log KT      Initial       Final       Delta

Calcite              0.00   -8.48   -8.48   1.000e+001  1.000e+001  1.389e-003

-----------------------------Solution composition------------------------------

	Elements           Molality       Moles

	C                6.367e-002  6.359e-002
	Ca               1.114e-003  1.113e-003
	N                1.282e-001  1.280e-001

----------------------------Description of solution----------------------------

                                       pH  =   6.655      Charge balance
                                       pe  =  -3.433      Adjusted to redox equilibrium
       Specific Conductance (uS/cm, 25 oC) = 4627
                          Density (g/cm3)  =   0.99917
                        Activity of water  =   0.997
                           Ionic strength  =  4.529e-002
                       Mass of water (kg)  =  9.986e-001
                 Total alkalinity (eq/kg)  =  4.475e-002
                       Total CO2 (mol/kg)  =  6.291e-002
                      Temperature (deg C)  =  25.000
                  Electrical balance (eq)  = -1.081e-010
 Percent error, 100*(Cat-|An|)/(Cat+|An|)  =  -0.00
                               Iterations  =  23
                                  Total H  = 1.110792e+002
                                  Total O  = 5.560114e+001

----------------------------Distribution of species----------------------------

                                                   Log       Log         Log 
   Species                 Molality    Activity  Molality  Activity     Gamma

   H+                    2.580e-007  2.213e-007    -6.588    -6.655    -0.067
   OH-                   5.514e-008  4.512e-008    -7.259    -7.346    -0.087
   H2O                   5.551e+001  9.975e-001     1.744    -0.001     0.000
C(-4)           7.616e-004
   CH4                   7.616e-004  7.696e-004    -3.118    -3.114     0.005
C(4)            6.291e-002
   HCO3-                 4.438e-002  3.702e-002    -1.353    -1.432    -0.079
   CO2                   1.828e-002  1.847e-002    -1.738    -1.734     0.005
   CaHCO3+               2.391e-004  1.994e-004    -3.621    -3.700    -0.079
   CO3-2                 1.620e-005  7.845e-006    -4.791    -5.105    -0.315
   CaCO3                 5.507e-006  5.565e-006    -5.259    -5.255     0.005
Ca              1.114e-003
   Ca+2                  8.698e-004  4.223e-004    -3.061    -3.374    -0.314
   CaHCO3+               2.391e-004  1.994e-004    -3.621    -3.700    -0.079
   CaCO3                 5.507e-006  5.565e-006    -5.259    -5.255     0.005
   CaOH+                 3.819e-010  3.158e-010    -9.418    -9.501    -0.082
H(0)            5.051e-010
   H2                    2.525e-010  2.552e-010    -9.598    -9.593     0.005
N(-3)           4.252e-002
   NH4+                  4.243e-002  3.431e-002    -1.372    -1.465    -0.092
   NH3                   8.743e-005  8.834e-005    -4.058    -4.054     0.005
N(0)            8.565e-002
   N2                    4.283e-002  4.328e-002    -1.368    -1.364     0.005
N(3)            0.000e+000
   NO2-                  0.000e+000  0.000e+000   -59.245   -59.334    -0.090
N(5)            0.000e+000
   NO3-                  0.000e+000  0.000e+000   -81.373   -81.462    -0.090
O(0)            0.000e+000
   O2                    0.000e+000  0.000e+000   -73.200   -73.196     0.005

------------------------------Saturation indices-------------------------------

	Phase               SI log IAP  log KT

	Aragonite        -0.14   -8.48   -8.34  CaCO3
	Calcite           0.00   -8.48   -8.48  CaCO3
	CH4(g)           -0.25   -3.11   -2.86  CH4
	CO2(g)           -0.27   -1.73   -1.47  CO2
	H2(g)            -6.44   -9.59   -3.15  H2
	H2O(g)           -1.51   -0.00    1.51  H2O
	N2(g)             1.90   -1.36   -3.26  N2
	NH3(g)           -5.82   -4.05    1.77  NH3
	O2(g)           -70.30  -73.20   -2.89  O2

------------------
End of simulation.
------------------

-------------------------------------
Reading input data for simulation 11.
-------------------------------------

-----------
End of run.
-----------

