   Input file: phantom_surface
  Output file: phantom_surface.out
Database file: ../database/wateq4f.dat

------------------
Reading data base.
------------------

	SOLUTION_MASTER_SPECIES
	SOLUTION_SPECIES
	PHASES
	EXCHANGE_MASTER_SPECIES
	EXCHANGE_SPECIES
	SURFACE_MASTER_SPECIES
	SURFACE_SPECIES
	RATES
	END
------------------------------------
Reading input data for simulation 1.
------------------------------------

	DATABASE ../database/wateq4f.dat
	PHASES
	   Fix_H+
	   H+=H+
	   log_k 0.0
	KNOBS
	    convergence_tolerance 1e-8 # 1e-10 OK
	SOLUTION 1
	   pH    1.95
	   units    mol/kgw
	   Na    1e-2
	   Cl     1e-2 charge  # can't balance the charge like this?
	   Ca    1e-3
	   Fe    0
	EXCHANGE
	   equilibrate 1
	   X 0.02
	END
-------------------------------------------
Beginning of initial solution calculations.
-------------------------------------------

Initial solution 1.	

-----------------------------Solution composition------------------------------

	Elements           Molality       Moles

	Ca               1.000e-003  1.000e-003
	Cl               2.475e-002  2.475e-002  Charge balance
	Na               1.000e-002  1.000e-002

----------------------------Description of solution----------------------------

                                       pH  =   1.950    
                                       pe  =   4.000    
                        Activity of water  =   0.999
                           Ionic strength  =  2.575e-002
                       Mass of water (kg)  =  1.000e+000
                 Total alkalinity (eq/kg)  = -1.275e-002
                    Total carbon (mol/kg)  =  0.000e+000
                       Total CO2 (mol/kg)  =  0.000e+000
                      Temperature (deg C)  =  25.000
                  Electrical balance (eq)  = -4.465e-017
 Percent error, 100*(Cat-|An|)/(Cat+|An|)  =  -0.00
                               Iterations  =   8
                                  Total H  = 1.110252e+002
                                  Total O  = 5.550622e+001

----------------------------Distribution of species----------------------------

                                                   Log       Log         Log 
   Species                 Molality    Activity  Molality  Activity     Gamma

   H+                    1.275e-002  1.122e-002    -1.895    -1.950    -0.055
   OH-                   1.039e-012  8.915e-013   -11.983   -12.050    -0.066
   H2O                   5.551e+001  9.992e-001     1.744    -0.000     0.000
Ca              1.000e-003
   Ca+2                  1.000e-003  5.566e-004    -3.000    -3.254    -0.254
   CaOH+                 9.586e-015  8.225e-015   -14.018   -14.085    -0.066
Cl              2.475e-002
   Cl-                   2.475e-002  2.113e-002    -1.606    -1.675    -0.069
H(0)            1.772e-015
   H2                    8.860e-016  8.913e-016   -15.053   -15.050     0.003
Na              1.000e-002
   Na+                   1.000e-002  8.599e-003    -2.000    -2.066    -0.066
O(0)            0.000e+000
   O2                    0.000e+000  0.000e+000   -62.283   -62.281     0.003

------------------------------Saturation indices-------------------------------

	Phase               SI log IAP  log KT

	Fix_H+           -1.95   -1.95    0.00  H+
	H2(g)           -11.90  -15.05   -3.15  H2
	H2O(g)           -1.51   -0.00    1.51  H2O
	Halite           -5.32   -3.74    1.58  NaCl
	O2(g)           -59.39  -62.28   -2.89  O2
	Portlandite     -22.16    0.64   22.80  Ca(OH)2

-------------------------------------------------------
Beginning of initial exchange-composition calculations.
-------------------------------------------------------

Exchange 1.	

X               2.000e-002 mol

	                               Equiv-    Equivalent      Log 
	Species             Moles      alents      Fraction     Gamma

	HX               1.547e-002  1.547e-002  7.737e-001     0.000
	CaX2             1.670e-003  3.340e-003  1.670e-001     0.000
	NaX              1.186e-003  1.186e-003  5.929e-002     0.000

-----------------------------------------
Beginning of batch-reaction calculations.
-----------------------------------------

Reaction step 1.

Using solution 1.	
Using exchange 1.	Exchange assemblage after simulation 1.

-----------------------------Exchange composition------------------------------

X               2.000e-002 mol

	                               Equiv-    Equivalent      Log 
	Species             Moles      alents      Fraction     Gamma

	HX               1.547e-002  1.547e-002  7.737e-001     0.000
	CaX2             1.670e-003  3.340e-003  1.670e-001     0.000
	NaX              1.186e-003  1.186e-003  5.929e-002     0.000

-----------------------------Solution composition------------------------------

	Elements           Molality       Moles

	Ca               1.000e-003  1.000e-003
	Cl               2.475e-002  2.475e-002
	Na               1.000e-002  1.000e-002

----------------------------Description of solution----------------------------

                                       pH  =   1.950      Charge balance
                                       pe  =   4.000      Adjusted to redox equilibrium
                        Activity of water  =   0.999
                           Ionic strength  =  2.575e-002
                       Mass of water (kg)  =  1.000e+000
                 Total alkalinity (eq/kg)  = -1.275e-002
                    Total carbon (mol/kg)  =  0.000e+000
                       Total CO2 (mol/kg)  =  0.000e+000
                      Temperature (deg C)  =  25.000
                  Electrical balance (eq)  = -4.465e-017
 Percent error, 100*(Cat-|An|)/(Cat+|An|)  =  -0.00
                               Iterations  =   0
                                  Total H  = 1.110252e+002
                                  Total O  = 5.550622e+001

----------------------------Distribution of species----------------------------

                                                   Log       Log         Log 
   Species                 Molality    Activity  Molality  Activity     Gamma

   H+                    1.275e-002  1.122e-002    -1.895    -1.950    -0.055
   OH-                   1.039e-012  8.915e-013   -11.983   -12.050    -0.066
   H2O                   5.551e+001  9.992e-001     1.744    -0.000     0.000
Ca              1.000e-003
   Ca+2                  1.000e-003  5.566e-004    -3.000    -3.254    -0.254
   CaOH+                 9.586e-015  8.225e-015   -14.018   -14.085    -0.066
Cl              2.475e-002
   Cl-                   2.475e-002  2.113e-002    -1.606    -1.675    -0.069
H(0)            1.772e-015
   H2                    8.860e-016  8.913e-016   -15.053   -15.050     0.003
Na              1.000e-002
   Na+                   1.000e-002  8.599e-003    -2.000    -2.066    -0.066
O(0)            0.000e+000
   O2                    0.000e+000  0.000e+000   -62.283   -62.281     0.003

------------------------------Saturation indices-------------------------------

	Phase               SI log IAP  log KT

	Fix_H+           -1.95   -1.95    0.00  H+
	H2(g)           -11.90  -15.05   -3.15  H2
	H2O(g)           -1.51   -0.00    1.51  H2O
	Halite           -5.32   -3.74    1.58  NaCl
	O2(g)           -59.39  -62.28   -2.89  O2
	Portlandite     -22.16    0.64   22.80  Ca(OH)2

------------------
End of simulation.
------------------

------------------------------------
Reading input data for simulation 2.
------------------------------------

	KNOBS 
	USE solution 1
	USE exchange 1
	EQUILIBRIUM_PHASES 1
	   Fix_H+ -8.0800 NaOH 10   # -8.0801 OK
	   O2(g) -48.0 10
	   CO2(g) -2     0.3
	   Fe(OH)3(a)    0 0
	SURFACE 1
	   Hfo_sOH Fe(OH)3(a)   equilibrium_phase 0.005  53300
	   Hfo_wOH Fe(OH)3(a)   equilibrium_phase 0.2
	END
-----------------------------------------
Beginning of batch-reaction calculations.
-----------------------------------------

Reaction step 1.

WARNING: Element Fe is contained in Fe(OH)3(a) (which has 0.0 mass),	
but is not in solution or other phases.
Using solution 1.	
Using exchange 1.	Exchange assemblage after simulation 1.
Using surface 1.	
Using pure phase assemblage 1.	

-------------------------------Phase assemblage--------------------------------

                                                      Moles in assemblage
Phase                  SI log IAP  log KT      Initial       Final       Delta

CO2(g)              -2.00   -3.47   -1.47   3.000e-001  2.771e-001 -2.294e-002
Fe(OH)3(a)           Element not present.   0.000e+000           0  0.000e+000
Fix_H+              -8.08   -8.08    0.00
	 NaOH               is reactant     1.000e+001  9.949e+000 -5.115e-002
O2(g)              -48.00  -50.89   -2.89   1.000e+001  1.000e+001 -5.329e-015

------------------------------Surface composition------------------------------

Hfo           
	 1.857e-029  Surface charge, eq
	undefined  sigma, C/m**2
	 0.000e+000  psi, V
	-0.000e+000  -F*psi/RT
	 1.000e+000  exp(-F*psi/RT)
	 5.330e+004  specific area, m**2/mol Fe(OH)3(a)
	 0.000e+000  m**2 for  0.000e+000 moles of Fe(OH)3(a)


Hfo_s         
	 0.000e+000  moles	[0.005 mol/(mol Fe(OH)3(a))]
	                                   Mole                     Log
	Species               Moles    Fraction    Molality    Molality

	Hfo_sOHCa+2      9.257e-030       0.000  9.252e-030     -29.034
	Hfo_sOH          1.000e-030       0.000  9.995e-031     -30.000
	Hfo_sOH2+        1.622e-031       0.000  1.621e-031     -30.790
	Hfo_sO-          1.413e-031       0.000  1.412e-031     -30.850

Hfo_w         
	 0.000e+000  moles	[0.2 mol/(mol Fe(OH)3(a))]
	                                   Mole                     Log
	Species               Moles    Fraction    Molality    Molality

	Hfo_wOH          1.000e-030       0.000  9.995e-031     -30.000
	Hfo_wOH2+        1.622e-031       0.000  1.621e-031     -30.790
	Hfo_wO-          1.413e-031       0.000  1.412e-031     -30.850
	Hfo_wOCa+        1.684e-032       0.000  1.684e-032     -31.774

-----------------------------Exchange composition------------------------------

X               2.000e-002 mol

	                               Equiv-    Equivalent      Log 
	Species             Moles      alents      Fraction     Gamma

	NaX              1.516e-002  1.516e-002  7.582e-001    -0.000
	CaX2             2.418e-003  4.836e-003  2.418e-001    -0.000
	HX               3.270e-008  3.270e-008  1.635e-006    -0.000

-----------------------------Solution composition------------------------------

	Elements           Molality       Moles

	C                2.293e-002  2.294e-002
	Ca               2.516e-004  2.517e-004
	Cl               2.474e-002  2.475e-002
	Na               4.715e-002  4.717e-002

----------------------------Description of solution----------------------------

                                       pH  =   8.080      Charge balance
                                       pe  =   0.717      Adjusted to redox equilibrium
                        Activity of water  =   0.998
                           Ionic strength  =  4.753e-002
                       Mass of water (kg)  =  1.001e+000
                 Total alkalinity (eq/kg)  =  2.292e-002
                       Total CO2 (mol/kg)  =  2.293e-002
                      Temperature (deg C)  =  25.000
                  Electrical balance (eq)  = -5.779e-016
 Percent error, 100*(Cat-|An|)/(Cat+|An|)  =  -0.00
                               Iterations  =  17
                                  Total H  = 1.110918e+002
                                  Total O  = 5.560325e+001

----------------------------Distribution of species----------------------------

                                                   Log       Log         Log 
   Species                 Molality    Activity  Molality  Activity     Gamma

   OH-                   1.458e-006  1.202e-006    -5.836    -5.920    -0.084
   H+                    9.717e-009  8.318e-009    -8.012    -8.080    -0.068
   H2O                   5.551e+001  9.984e-001     1.744    -0.001     0.000
C(-4)           0.000e+000
   CH4                   0.000e+000  0.000e+000   -49.459   -49.454     0.005
C(4)            2.293e-002
   HCO3-                 2.186e-002  1.818e-002    -1.660    -1.741    -0.080
   NaHCO3                3.900e-004  3.942e-004    -3.409    -3.404     0.005
   CO2                   3.367e-004  3.405e-004    -3.473    -3.468     0.005
   CO3-2                 2.143e-004  1.025e-004    -3.669    -3.989    -0.320
   NaCO3-                8.929e-005  7.361e-005    -4.049    -4.133    -0.084
   CaHCO3+               2.790e-005  2.299e-005    -4.554    -4.638    -0.084
   CaCO3                 1.684e-005  1.703e-005    -4.774    -4.769     0.005
Ca              2.516e-004
   Ca+2                  2.069e-004  9.919e-005    -3.684    -4.004    -0.319
   CaHCO3+               2.790e-005  2.299e-005    -4.554    -4.638    -0.084
   CaCO3                 1.684e-005  1.703e-005    -4.774    -4.769     0.005
   CaOH+                 2.397e-009  1.976e-009    -8.620    -8.704    -0.084
Cl              2.474e-002
   Cl-                   2.474e-002  2.019e-002    -1.607    -1.695    -0.088
H(0)            3.563e-021
   H2                    1.781e-021  1.801e-021   -20.749   -20.745     0.005
Na              4.715e-002
   Na+                   4.667e-002  3.857e-002    -1.331    -1.414    -0.083
   NaHCO3                3.900e-004  3.942e-004    -3.409    -3.404     0.005
   NaCO3-                8.929e-005  7.361e-005    -4.049    -4.133    -0.084
O(0)            0.000e+000
   O2                    0.000e+000  0.000e+000   -50.897   -50.892     0.005

------------------------------Saturation indices-------------------------------

	Phase               SI log IAP  log KT

	Aragonite         0.34   -7.99   -8.34  CaCO3
	Calcite           0.49   -7.99   -8.48  CaCO3
	CH4(g)          -46.59  -49.45   -2.86  CH4
	CO2(g)           -2.00   -3.47   -1.47  CO2
	Fix_H+           -8.08   -8.08    0.00  H+
	H2(g)           -17.59  -20.74   -3.15  H2
	H2O(g)           -1.51   -0.00    1.51  H2O
	Halite           -4.69   -3.11    1.58  NaCl
	Nahcolite        -2.61   -3.15   -0.55  NaHCO3
	Natron           -5.51   -6.82   -1.31  Na2CO3:10H2O
	O2(g)           -48.00  -50.89   -2.89  O2
	Portlandite     -10.64   12.16   22.80  Ca(OH)2
	Thermonatrite    -6.94   -6.82    0.13  Na2CO3:H2O
	Trona            -9.18   -9.97   -0.80  NaHCO3:Na2CO3:2H2O

------------------
End of simulation.
------------------

------------------------------------
Reading input data for simulation 3.
------------------------------------

-----------
End of run.
-----------

