   Input file: pitzalphas
  Output file: pitzalphas.out
Database file: ../database/pitzer.dat

------------------
Reading data base.
------------------

	SOLUTION_MASTER_SPECIES
	SOLUTION_SPECIES
	PHASES
	PITZER
	EXCHANGE_MASTER_SPECIES
	EXCHANGE_SPECIES
	SURFACE_MASTER_SPECIES
	SURFACE_SPECIES
	END
------------------------------------
Reading input data for simulation 1.
------------------------------------

	DATABASE ../database/pitzer.dat
	knobs
		convergence_tolerance	1e-10
		step_size	10
	PITZER
		 macinnes  true
	alphas
	 Mg+2      SO4-2     10     50
	 Ca+2      SO4-2     11     100
	USER_PRINT
	10 PRINT "Osmotic coefficient: ", OSMOTIC
	SOLUTION 1 Canadian Shield Brine T-93.
		 units	    mg/L
		 pH	    5
		 pe	    4
		 density    1.204
		 temp	    18
		 Ca	    64000.
		 Na	    45000.
		 Mg	    5100.
		 K	    199.
		 Sr	    1080.
		 Cl	    207000.
		 Br	    1760.
		 S	    284.
		 Alkalinity 19. as HCO3
	END
-------------------------------------------
Beginning of initial solution calculations.
-------------------------------------------

Initial solution 1.	Canadian Shield Brine T-93.

----------------------------------User print-----------------------------------

Osmotic coefficient:   1.6511e+000 

-----------------------------Solution composition------------------------------

	Elements           Molality       Moles

	Alkalinity       3.540e-004  3.540e-004
	Br               2.504e-002  2.504e-002
	Ca               1.815e+000  1.815e+000
	Cl               6.638e+000  6.638e+000
	K                5.787e-003  5.787e-003
	Mg               2.386e-001  2.386e-001
	Na               2.225e+000  2.225e+000
	S                3.361e-003  3.361e-003
	Sr               1.401e-002  1.401e-002

----------------------------Description of solution----------------------------

                                       pH  =   5.000    
                                       pe  =   4.000    
       Specific Conductance (uS/cm, 18 oC) = 430010
                          Density (g/cm3)  =   1.25208
                        Activity of water  =   0.722
                           Ionic strength  =  8.590e+000
                       Mass of water (kg)  =  1.000e+000
                    Total carbon (mol/kg)  =  3.175e-003
                       Total CO2 (mol/kg)  =  3.175e-003
                      Temperature (deg C)  =  18.000
                  Electrical balance (eq)  = -3.031e-001
 Percent error, 100*(Cat-|An|)/(Cat+|An|)  =  -2.32
                               Iterations  =  26
                         Gamma iterations  =   7
                      Osmotic coefficient  =   1.65108
                         Density of water  =   0.99863
                                  Total H  = 1.110127e+002
                                  Total O  = 5.552634e+001

----------------------------Distribution of species----------------------------

                                                           MacInnes   MacInnes
	                               MacInnes    Log       Log         Log 
   Species                 Molality    Activity  Molality  Activity     Gamma

   H+                    8.254e-007  1.000e-005    -6.083    -5.000     1.083
   OH-                   1.802e-008  4.218e-010    -7.744    -9.375    -1.631
   H2O                   5.551e+001  7.216e-001     1.744    -0.142     0.000
Br              2.504e-002
   Br-                   2.504e-002  2.466e-002    -1.601    -1.608    -0.007
C(4)            3.175e-003
   CO2                   2.849e-003  8.833e-003    -2.545    -2.054     0.491
   HCO3-                 2.990e-004  2.649e-004    -3.524    -3.577    -0.053
   CaCO3                 2.156e-005  2.156e-005    -4.666    -4.666     0.000
   CO3-2                 3.137e-006  1.039e-009    -5.503    -8.983    -3.480
   MgCO3                 3.063e-006  3.063e-006    -5.514    -5.514     0.000
Ca              1.815e+000
   Ca+2                  1.815e+000  1.654e+001     0.259     1.218     0.960
   CaCO3                 2.156e-005  2.156e-005    -4.666    -4.666     0.000
Cl              6.638e+000
   Cl-                   6.638e+000  4.403e+000     0.822     0.644    -0.178
K               5.787e-003
   K+                    5.787e-003  5.787e-003    -2.238    -2.238     0.000
Mg              2.386e-001
   Mg+2                  2.386e-001  3.841e+000    -0.622     0.585     1.207
   MgCO3                 3.063e-006  3.063e-006    -5.514    -5.514     0.000
   MgOH+                 3.621e-007  2.302e-007    -6.441    -6.638    -0.197
Na              2.225e+000
   Na+                   2.225e+000  6.029e+000     0.347     0.780     0.433
S(6)            3.361e-003
   SO4-2                 3.361e-003  2.284e-006    -2.474    -5.641    -3.168
   HSO4-                 3.920e-009  1.796e-009    -8.407    -8.746    -0.339
Sr              1.401e-002
   Sr+2                  1.401e-002  8.039e-002    -1.853    -1.095     0.759

------------------------------Saturation indices-------------------------------

	Phase               SI log IAP  log KT

	Anhydrite        -0.10   -4.42   -4.32  CaSO4
	Aragonite         0.41   -7.76   -8.18  CaCO3
	Arcanite         -8.23  -10.12   -1.89  K2SO4
	Bischofite       -3.46    1.02    4.48  MgCl2:6H2O
	Bloedite         -7.36   -9.70   -2.35  Na2Mg(SO4)2:4H2O
	Brucite          -7.20  -18.17  -10.97  Mg(OH)2
	Burkeite        -14.81  -15.58   -0.77  Na6CO3(SO4)2
	Calcite           0.61   -7.76   -8.37  CaCO3
	Carnallite       -4.90   -0.57    4.33  KMgCl3:6H2O
	Celestite        -0.11   -6.74   -6.63  SrSO4
	CO2(g)           -0.67   -2.05   -1.38  CO2
	Dolomite          0.75  -16.16  -16.92  CaMg(CO3)2
	Epsomite         -4.08   -6.05   -1.97  MgSO4:7H2O
	Gaylussite       -6.48  -15.90   -9.42  CaNa2(CO3)2:5H2O
	Glaserite       -13.41  -17.21   -3.80  NaK3(SO4)2
	Glauberite       -3.26   -8.50   -5.25  Na2Ca(SO4)2
	Gypsum           -0.12   -4.71   -4.58  CaSO4:2H2O
	H2O(g)           -1.84   -0.14    1.70  H2O
	Halite           -0.13    1.42    1.56  NaCl
	Hexahydrite      -4.19   -5.91   -1.72  MgSO4:6H2O
	Kainite          -6.88   -7.08   -0.19  KMgClSO4:3H2O
	Kalicinite       -6.16  -16.22  -10.06  KHCO3
	Kieserite        -5.08   -5.20   -0.12  MgSO4:H2O
	Labile_S         -7.20  -12.87   -5.67  Na4Ca(SO4)3:2H2O
	Leonhardite      -4.74   -5.62   -0.89  MgSO4:4H2O
	Leonite         -11.76  -15.74   -3.98  K2Mg(SO4)2:4H2O
	Magnesite        -0.59   -8.40   -7.81  MgCO3
	Mirabilite       -3.95   -5.50   -1.55  Na2SO4:10H2O
	Misenite        -76.58  -87.39  -10.81  K8H6(SO4)7
	Nahcolite        -2.46  -13.20  -10.74  NaHCO3
	Natron           -8.01   -8.84   -0.82  Na2CO3:10H2O
	Nesquehonite     -3.66   -8.82   -5.17  MgCO3:3H2O
	Pentahydrite     -4.48   -5.77   -1.28  MgSO4:5H2O
	Pirssonite       -6.24  -15.47   -9.23  Na2Ca(CO3)2:2H2O
	Polyhalite      -10.56  -24.30  -13.74  K2MgCa2(SO4)4:2H2O
	Portlandite     -12.34  -17.53   -5.19  Ca(OH)2
	Schoenite       -11.70  -16.02   -4.33  K2Mg(SO4)2:6H2O
	Sylvite          -2.42   -1.59    0.83  KCl
	Syngenite        -7.23  -14.68   -7.45  K2Ca(SO4)2:H2O
	Trona            -9.53  -20.91  -11.38  Na3H(CO3)2:2H2O

------------------
End of simulation.
------------------

------------------------------------
Reading input data for simulation 2.
------------------------------------

-----------
End of run.
-----------

