   Input file: prob8
  Output file: prob8.out
Database file: ../database/phreeqc.dat

------------------
Reading data base.
------------------

	SOLUTION_MASTER_SPECIES
	SOLUTION_SPECIES
	PHASES
	EXCHANGE_MASTER_SPECIES
	EXCHANGE_SPECIES
	SURFACE_MASTER_SPECIES
	SURFACE_SPECIES
	RATES
	END
------------------------------------
Reading input data for simulation 1.
------------------------------------

	DATABASE ../database/phreeqc.dat
	knobs
		logfile
	PRINT
		status false
	SOLUTION 1
		units 	mg/L
		pH	5.5
		pe	4.7
		S(6)	3200
		Fe	270
		Zn	210
	PURE_PHASES 1
		sphalerite	
		pyrite
	REACTION 1
		CH2O	1.0
		0.03 moles in 3 steps
	END
-------------------------------------------
Beginning of initial solution calculations.
-------------------------------------------

Initial solution 1.	

-----------------------------Solution composition------------------------------

	Elements           Molality       Moles

	Fe               4.852e-003  4.852e-003
	S(6)             3.343e-002  3.343e-002
	Zn               3.224e-003  3.224e-003

----------------------------Description of solution----------------------------

                                       pH  =   5.500    
                                       pe  =   4.700    
       Specific Conductance (uS/cm, 25 oC) = 3505
                          Density (g/cm3)  =   1.00019
                        Activity of water  =   0.999
                           Ionic strength  =  6.574e-002
                       Mass of water (kg)  =  1.000e+000
                 Total alkalinity (eq/kg)  = -8.092e-006
                    Total carbon (mol/kg)  =  0.000e+000
                       Total CO2 (mol/kg)  =  0.000e+000
                      Temperature (deg C)  =  25.000
                  Electrical balance (eq)  = -5.071e-002
 Percent error, 100*(Cat-|An|)/(Cat+|An|)  = -77.13
                               Iterations  =   6
                                  Total H  = 1.110124e+002
                                  Total O  = 5.563996e+001

----------------------------Distribution of species----------------------------

                                                   Log       Log         Log 
   Species                 Molality    Activity  Molality  Activity     Gamma

   H+                    3.752e-006  3.162e-006    -5.426    -5.500    -0.074
   OH-                   3.991e-009  3.164e-009    -8.399    -8.500    -0.101
   H2O                   5.551e+001  9.994e-001     1.744    -0.000     0.000
Fe(2)           4.851e-003
   Fe+2                  2.469e-003  1.110e-003    -2.608    -2.955    -0.347
   FeSO4                 2.382e-003  2.419e-003    -2.623    -2.616     0.007
   FeOH+                 1.377e-007  1.109e-007    -6.861    -6.955    -0.094
   FeHSO4+               6.241e-008  5.027e-008    -7.205    -7.299    -0.094
Fe(3)           1.481e-006
   Fe(OH)2+              1.408e-006  1.135e-006    -5.851    -5.945    -0.094
   Fe(OH)3               4.550e-008  4.619e-008    -7.342    -7.335     0.007
   FeOH+2                2.574e-008  1.084e-008    -7.589    -7.965    -0.376
   FeSO4+                8.860e-010  7.138e-010    -9.053    -9.146    -0.094
   Fe(SO4)2-             2.375e-010  1.913e-010    -9.624    -9.718    -0.094
   Fe+3                  2.478e-011  5.314e-012   -10.606   -11.275    -0.669
   Fe(OH)4-              1.653e-011  1.331e-011   -10.782   -10.876    -0.094
   Fe2(OH)2+4            1.006e-013  3.164e-015   -12.998   -14.500    -1.502
   FeHSO4+2              1.435e-014  6.044e-015   -13.843   -14.219    -0.376
   Fe3(OH)4+5            1.668e-016  7.500e-019   -15.778   -18.125    -2.347
H(0)            5.552e-024
   H2                    2.776e-024  2.818e-024   -23.557   -23.550     0.007
O(0)            0.000e+000
   O2                    0.000e+000  0.000e+000   -45.287   -45.281     0.007
S(6)            3.343e-002
   SO4-2                 2.874e-002  1.225e-002    -1.542    -1.912    -0.370
   FeSO4                 2.382e-003  2.419e-003    -2.623    -2.616     0.007
   ZnSO4                 1.562e-003  1.586e-003    -2.806    -2.800     0.007
   Zn(SO4)2-2            3.749e-004  1.579e-004    -3.426    -3.802    -0.376
   HSO4-                 4.676e-006  3.767e-006    -5.330    -5.424    -0.094
   FeHSO4+               6.241e-008  5.027e-008    -7.205    -7.299    -0.094
   FeSO4+                8.860e-010  7.138e-010    -9.053    -9.146    -0.094
   Fe(SO4)2-             2.375e-010  1.913e-010    -9.624    -9.718    -0.094
   FeHSO4+2              1.435e-014  6.044e-015   -13.843   -14.219    -0.376
Zn              3.224e-003
   ZnSO4                 1.562e-003  1.586e-003    -2.806    -2.800     0.007
   Zn+2                  1.287e-003  5.521e-004    -2.890    -3.258    -0.368
   Zn(SO4)2-2            3.749e-004  1.579e-004    -3.426    -3.802    -0.376
   ZnOH+                 2.375e-007  1.913e-007    -6.624    -6.718    -0.094
   Zn(OH)2               6.838e-010  6.942e-010    -9.165    -9.158     0.007
   Zn(OH)3-              8.612e-016  6.938e-016   -15.065   -15.159    -0.094
   Zn(OH)4-2             8.251e-023  3.475e-023   -22.083   -22.459    -0.376

------------------------------Saturation indices-------------------------------

	Phase               SI log IAP  log KT

	Fe(OH)3(a)        0.33    5.22    4.89  Fe(OH)3
	Goethite          6.22    5.22   -1.00  FeOOH
	H2(g)           -20.40  -23.55   -3.15  H2
	H2O(g)           -1.51   -0.00    1.51  H2O
	Hematite         14.46   10.45   -4.01  Fe2O3
	Melanterite      -2.66   -4.87   -2.21  FeSO4:7H2O
	O2(g)           -42.39  -45.28   -2.89  O2
	Zn(OH)2(e)       -3.76    7.74   11.50  Zn(OH)2

-----------------------------------------
Beginning of batch-reaction calculations.
-----------------------------------------

Reaction step 1.

Using solution 1.	
Using pure phase assemblage 1.	
Using reaction 1.	

Reaction 1.	Irreversible reaction defined in simulation 1.

	 1.000e-002 moles of the following reaction have been added:

	                 Relative
	Reactant            moles

	CH2O                 1.00000

	                 Relative
	Element             moles
	C                    1.00000
	H                    2.00000
	O                    1.00000

-------------------------------Phase assemblage--------------------------------

                                                      Moles in assemblage
Phase                  SI log IAP  log KT      Initial       Final       Delta

Pyrite               0.00  -18.48  -18.48   1.000e+001  1.000e+001  1.074e-003
Sphalerite           0.00  -11.62  -11.62   1.000e+001  1.000e+001  3.121e-003

-----------------------------Solution composition------------------------------

	Elements           Molality       Moles

	C                9.998e-003  1.000e-002
	Fe               3.778e-003  3.779e-003
	S                2.816e-002  2.817e-002
	Zn               1.036e-004  1.036e-004

----------------------------Description of solution----------------------------

                                       pH  =   5.660      Charge balance
                                       pe  =  -0.836      Adjusted to redox equilibrium
       Specific Conductance (uS/cm, 25 oC) = 3223
                          Density (g/cm3)  =   0.99962
                        Activity of water  =   0.999
                           Ionic strength  =  5.752e-002
                       Mass of water (kg)  =  1.000e+000
                 Total alkalinity (eq/kg)  =  2.141e-003
                       Total CO2 (mol/kg)  =  9.998e-003
                      Temperature (deg C)  =  25.000
                  Electrical balance (eq)  = -5.071e-002
 Percent error, 100*(Cat-|An|)/(Cat+|An|)  = -86.53
                               Iterations  =  10
                                  Total H  = 1.110324e+002
                                  Total O  = 5.564996e+001

----------------------------Distribution of species----------------------------

                                                   Log       Log         Log 
   Species                 Molality    Activity  Molality  Activity     Gamma

   H+                    2.580e-006  2.188e-006    -5.588    -5.660    -0.071
   OH-                   5.700e-009  4.572e-009    -8.244    -8.340    -0.096
   H2O                   5.551e+001  9.993e-001     1.744    -0.000     0.000
C(-4)           4.977e-017
   CH4                   4.977e-017  5.043e-017   -16.303   -16.297     0.006
C(4)            9.998e-003
   CO2                   7.853e-003  7.958e-003    -2.105    -2.099     0.006
   HCO3-                 1.969e-003  1.616e-003    -2.706    -2.791    -0.086
   FeHCO3+               1.708e-004  1.389e-004    -3.768    -3.857    -0.090
   ZnHCO3+               4.473e-006  3.638e-006    -5.349    -5.439    -0.090
   FeCO3                 7.047e-007  7.141e-007    -6.152    -6.146     0.006
   ZnCO3                 1.219e-007  1.236e-007    -6.914    -6.908     0.006
   CO3-2                 7.628e-008  3.464e-008    -7.118    -7.460    -0.343
   Zn(CO3)2-2            2.091e-010  9.151e-011    -9.680   -10.039    -0.359
Fe(2)           3.778e-003
   Fe+2                  1.845e-003  8.593e-004    -2.734    -3.066    -0.332
   FeSO4                 1.762e-003  1.785e-003    -2.754    -2.748     0.006
   FeHCO3+               1.708e-004  1.389e-004    -3.768    -3.857    -0.090
   FeCO3                 7.047e-007  7.141e-007    -6.152    -6.146     0.006
   FeOH+                 1.526e-007  1.241e-007    -6.817    -6.906    -0.090
   FeHSO4+               3.157e-008  2.568e-008    -7.501    -7.590    -0.090
   Fe(HS)2               6.577e-020  6.664e-020   -19.182   -19.176     0.006
   Fe(HS)3-              2.632e-030  2.141e-030   -29.580   -29.669    -0.090
Fe(3)           6.951e-012
   Fe(OH)2+              6.559e-012  5.334e-012   -11.183   -11.273    -0.090
   Fe(OH)3               3.097e-013  3.138e-013   -12.509   -12.503     0.006
   FeOH+2                8.061e-014  3.527e-014   -13.094   -13.453    -0.359
   FeSO4+                1.884e-015  1.532e-015   -14.725   -14.815    -0.090
   Fe(SO4)2-             4.815e-016  3.917e-016   -15.317   -15.407    -0.090
   Fe(OH)4-              1.607e-016  1.307e-016   -15.794   -15.884    -0.090
   Fe+3                  5.263e-017  1.196e-017   -16.279   -16.922    -0.643
   FeHSO4+2              2.052e-020  8.979e-021   -19.688   -20.047    -0.359
   Fe2(OH)2+4            9.133e-025  3.349e-026   -24.039   -25.475    -1.436
   Fe3(OH)4+5            6.536e-033  3.732e-035   -32.185   -34.428    -2.243
H(0)            3.148e-013
   H2                    1.574e-013  1.595e-013   -12.803   -12.797     0.006
O(0)            0.000e+000
   O2                    0.000e+000  0.000e+000   -66.792   -66.786     0.006
S(-2)           5.937e-012
   H2S                   5.570e-012  5.644e-012   -11.254   -11.248     0.006
   HS-                   3.678e-013  2.950e-013   -12.434   -12.530    -0.096
   Fe(HS)2               6.577e-020  6.664e-020   -19.182   -19.176     0.006
   S-2                   3.650e-020  1.628e-020   -19.438   -19.788    -0.351
   Fe(HS)3-              2.632e-030  2.141e-030   -29.580   -29.669    -0.090
S(6)            2.816e-002
   SO4-2                 2.633e-002  1.168e-002    -1.580    -1.932    -0.353
   FeSO4                 1.762e-003  1.785e-003    -2.754    -2.748     0.006
   ZnSO4                 4.831e-005  4.896e-005    -4.316    -4.310     0.006
   Zn(SO4)2-2            1.062e-005  4.649e-006    -4.974    -5.333    -0.359
   HSO4-                 3.056e-006  2.485e-006    -5.515    -5.605    -0.090
   FeHSO4+               3.157e-008  2.568e-008    -7.501    -7.590    -0.090
   FeSO4+                1.884e-015  1.532e-015   -14.725   -14.815    -0.090
   Fe(SO4)2-             4.815e-016  3.917e-016   -15.317   -15.407    -0.090
   FeHSO4+2              2.052e-020  8.979e-021   -19.688   -20.047    -0.359
Zn              1.036e-004
   ZnSO4                 4.831e-005  4.896e-005    -4.316    -4.310     0.006
   Zn+2                  4.007e-005  1.788e-005    -4.397    -4.748    -0.351
   Zn(SO4)2-2            1.062e-005  4.649e-006    -4.974    -5.333    -0.359
   ZnHCO3+               4.473e-006  3.638e-006    -5.349    -5.439    -0.090
   ZnCO3                 1.219e-007  1.236e-007    -6.914    -6.908     0.006
   ZnOH+                 1.101e-008  8.951e-009    -7.958    -8.048    -0.090
   Zn(CO3)2-2            2.091e-010  9.151e-011    -9.680   -10.039    -0.359
   Zn(OH)2               4.632e-011  4.694e-011   -10.334   -10.328     0.006
   Zn(OH)3-              8.334e-017  6.778e-017   -16.079   -16.169    -0.090
   Zn(OH)4-2             1.121e-023  4.906e-024   -22.950   -23.309    -0.359

------------------------------Saturation indices-------------------------------

	Phase               SI log IAP  log KT

	CH4(g)          -13.44  -16.30   -2.86  CH4
	CO2(g)           -0.63   -2.10   -1.47  CO2
	Fe(OH)3(a)       -4.83    0.06    4.89  Fe(OH)3
	FeS(ppt)         -6.02   -9.94   -3.92  FeS
	Goethite          1.06    0.06   -1.00  FeOOH
	H2(g)            -9.65  -12.80   -3.15  H2
	H2O(g)           -1.51   -0.00    1.51  H2O
	H2S(g)          -10.25  -11.25   -1.00  H2S
	Hematite          4.12    0.11   -4.01  Fe2O3
	Mackinawite      -5.29   -9.94   -4.65  FeS
	Melanterite      -2.79   -5.00   -2.21  FeSO4:7H2O
	O2(g)           -63.89  -66.79   -2.89  O2
	Pyrite            0.00  -18.48  -18.48  FeS2
	Siderite          0.36  -10.53  -10.89  FeCO3
	Smithsonite      -2.21  -12.21  -10.00  ZnCO3
	Sphalerite        0.00  -11.62  -11.62  ZnS
	Sulfur           -6.48   -1.60    4.88  S
	Zn(OH)2(e)       -4.93    6.57   11.50  Zn(OH)2

Reaction step 2.

Using solution 1.	
Using pure phase assemblage 1.	
Using reaction 1.	

Reaction 1.	Irreversible reaction defined in simulation 1.

	 2.000e-002 moles of the following reaction have been added:

	                 Relative
	Reactant            moles

	CH2O                 1.00000

	                 Relative
	Element             moles
	C                    1.00000
	H                    2.00000
	O                    1.00000

-------------------------------Phase assemblage--------------------------------

                                                      Moles in assemblage
Phase                  SI log IAP  log KT      Initial       Final       Delta

Pyrite              -0.00  -18.48  -18.48   1.000e+001  1.000e+001  3.881e-003
Sphalerite          -0.00  -11.62  -11.62   1.000e+001  1.000e+001  3.208e-003

-----------------------------Solution composition------------------------------

	Elements           Molality       Moles

	C                1.999e-002  2.000e-002
	Fe               9.711e-004  9.714e-004
	S                2.246e-002  2.246e-002
	Zn               1.643e-005  1.644e-005

----------------------------Description of solution----------------------------

                                       pH  =   6.059      Charge balance
                                       pe  =  -1.344      Adjusted to redox equilibrium
       Specific Conductance (uS/cm, 25 oC) = 2899
                          Density (g/cm3)  =   0.99920
                        Activity of water  =   0.999
                           Ionic strength  =  4.889e-002
                       Mass of water (kg)  =  1.000e+000
                 Total alkalinity (eq/kg)  =  7.753e-003
                       Total CO2 (mol/kg)  =  1.999e-002
                      Temperature (deg C)  =  25.000
                  Electrical balance (eq)  = -5.071e-002
 Percent error, 100*(Cat-|An|)/(Cat+|An|)  = -96.07
                               Iterations  =   9
                                  Total H  = 1.110524e+002
                                  Total O  = 5.565996e+001

----------------------------Distribution of species----------------------------

                                                   Log       Log         Log 
   Species                 Molality    Activity  Molality  Activity     Gamma

   H+                    1.022e-006  8.737e-007    -5.991    -6.059    -0.068
   OH-                   1.408e-008  1.145e-008    -7.851    -7.941    -0.090
   H2O                   5.551e+001  9.993e-001     1.744    -0.000     0.000
C(-4)           5.754e-016
   CH4                   5.754e-016  5.819e-016   -15.240   -15.235     0.005
C(4)            1.999e-002
   CO2                   1.224e-002  1.238e-002    -1.912    -1.907     0.005
   HCO3-                 7.587e-003  6.298e-003    -2.120    -2.201    -0.081
   FeHCO3+               1.603e-004  1.319e-004    -3.795    -3.880    -0.085
   ZnHCO3+               2.643e-006  2.174e-006    -5.578    -5.663    -0.085
   FeCO3                 1.679e-006  1.698e-006    -5.775    -5.770     0.005
   CO3-2                 7.122e-007  3.380e-007    -6.147    -6.471    -0.324
   ZnCO3                 1.829e-007  1.850e-007    -6.738    -6.733     0.005
   Zn(CO3)2-2            2.918e-009  1.337e-009    -8.535    -8.874    -0.339
Fe(2)           9.711e-004
   Fe+2                  4.312e-004  2.094e-004    -3.365    -3.679    -0.314
   FeSO4                 3.779e-004  3.822e-004    -3.423    -3.418     0.005
   FeHCO3+               1.603e-004  1.319e-004    -3.795    -3.880    -0.085
   FeCO3                 1.679e-006  1.698e-006    -5.775    -5.770     0.005
   FeOH+                 9.204e-008  7.572e-008    -7.036    -7.121    -0.085
   FeHSO4+               2.668e-009  2.195e-009    -8.574    -8.659    -0.085
   Fe(HS)2               1.087e-019  1.100e-019   -18.964   -18.959     0.005
   Fe(HS)3-              1.118e-029  9.194e-030   -28.952   -29.036    -0.085
Fe(3)           3.464e-012
   Fe(OH)2+              3.080e-012  2.534e-012   -11.511   -11.596    -0.085
   Fe(OH)3               3.691e-013  3.733e-013   -12.433   -12.428     0.005
   FeOH+2                1.460e-014  6.690e-015   -13.836   -14.175    -0.339
   Fe(OH)4-              4.733e-016  3.894e-016   -15.325   -15.410    -0.085
   FeSO4+                1.239e-016  1.020e-016   -15.907   -15.992    -0.085
   Fe(SO4)2-             2.783e-017  2.290e-017   -16.555   -16.640    -0.085
   Fe+3                  3.717e-018  9.060e-019   -17.430   -18.043    -0.613
   FeHSO4+2              5.207e-022  2.386e-022   -21.283   -21.622    -0.339
   Fe2(OH)2+4            2.735e-026  1.205e-027   -25.563   -26.919    -1.356
   Fe3(OH)4+5            8.384e-035  6.377e-037   -34.077   -36.195    -2.119
H(0)            5.205e-013
   H2                    2.603e-013  2.632e-013   -12.585   -12.580     0.005
O(0)            0.000e+000
   O2                    0.000e+000  0.000e+000   -67.226   -67.221     0.005
S(-2)           6.743e-012
   H2S                   5.799e-012  5.865e-012   -11.237   -11.232     0.005
   HS-                   9.441e-013  7.677e-013   -12.025   -12.115    -0.090
   S-2                   2.272e-019  1.061e-019   -18.644   -18.974    -0.331
   Fe(HS)2               1.087e-019  1.100e-019   -18.964   -18.959     0.005
   Fe(HS)3-              1.118e-029  9.194e-030   -28.952   -29.036    -0.085
S(6)            2.246e-002
   SO4-2                 2.207e-002  1.026e-002    -1.656    -1.989    -0.332
   FeSO4                 3.779e-004  3.822e-004    -3.423    -3.418     0.005
   ZnSO4                 6.525e-006  6.599e-006    -5.185    -5.181     0.005
   Zn(SO4)2-2            1.202e-006  5.506e-007    -5.920    -6.259    -0.339
   HSO4-                 1.060e-006  8.719e-007    -5.975    -6.060    -0.085
   FeHSO4+               2.668e-009  2.195e-009    -8.574    -8.659    -0.085
   FeSO4+                1.239e-016  1.020e-016   -15.907   -15.992    -0.085
   Fe(SO4)2-             2.783e-017  2.290e-017   -16.555   -16.640    -0.085
   FeHSO4+2              5.207e-022  2.386e-022   -21.283   -21.622    -0.339
Zn              1.643e-005
   ZnSO4                 6.525e-006  6.599e-006    -5.185    -5.181     0.005
   Zn+2                  5.870e-006  2.743e-006    -5.231    -5.562    -0.331
   ZnHCO3+               2.643e-006  2.174e-006    -5.578    -5.663    -0.085
   Zn(SO4)2-2            1.202e-006  5.506e-007    -5.920    -6.259    -0.339
   ZnCO3                 1.829e-007  1.850e-007    -6.738    -6.733     0.005
   ZnOH+                 4.181e-009  3.439e-009    -8.379    -8.464    -0.085
   Zn(CO3)2-2            2.918e-009  1.337e-009    -8.535    -8.874    -0.339
   Zn(OH)2               4.466e-011  4.516e-011   -10.350   -10.345     0.005
   Zn(OH)3-              1.986e-016  1.634e-016   -15.702   -15.787    -0.085
   Zn(OH)4-2             6.463e-023  2.961e-023   -22.190   -22.529    -0.339

------------------------------Saturation indices-------------------------------

	Phase               SI log IAP  log KT

	CH4(g)          -12.38  -15.24   -2.86  CH4
	CO2(g)           -0.44   -1.91   -1.47  CO2
	Fe(OH)3(a)       -4.76    0.13    4.89  Fe(OH)3
	FeS(ppt)         -5.82   -9.74   -3.92  FeS
	Goethite          1.13    0.13   -1.00  FeOOH
	H2(g)            -9.43  -12.58   -3.15  H2
	H2O(g)           -1.51   -0.00    1.51  H2O
	H2S(g)          -10.23  -11.23   -1.00  H2S
	Hematite          4.27    0.27   -4.01  Fe2O3
	Mackinawite      -5.09   -9.74   -4.65  FeS
	Melanterite      -3.46   -5.67   -2.21  FeSO4:7H2O
	O2(g)           -64.33  -67.22   -2.89  O2
	Pyrite           -0.00  -18.48  -18.48  FeS2
	Siderite          0.74  -10.15  -10.89  FeCO3
	Smithsonite      -2.03  -12.03  -10.00  ZnCO3
	Sphalerite       -0.00  -11.62  -11.62  ZnS
	Sulfur           -6.68   -1.80    4.88  S
	Zn(OH)2(e)       -4.95    6.55   11.50  Zn(OH)2

Reaction step 3.

Using solution 1.	
Using pure phase assemblage 1.	
Using reaction 1.	

Reaction 1.	Irreversible reaction defined in simulation 1.

	 3.000e-002 moles of the following reaction have been added:

	                 Relative
	Reactant            moles

	CH2O                 1.00000

	                 Relative
	Element             moles
	C                    1.00000
	H                    2.00000
	O                    1.00000

-------------------------------Phase assemblage--------------------------------

                                                      Moles in assemblage
Phase                  SI log IAP  log KT      Initial       Final       Delta

Pyrite               0.00  -18.48  -18.48   1.000e+001  1.000e+001  4.852e-003
Sphalerite           0.00  -11.62  -11.62   1.000e+001  1.000e+001  3.224e-003

-----------------------------Solution composition------------------------------

	Elements           Molality       Moles

	C                2.999e-002  3.000e-002
	Fe               2.410e-017  2.411e-017
	S                2.050e-002  2.050e-002
	Zn               1.317e-014  1.317e-014

----------------------------Description of solution----------------------------

                                       pH  =   6.302      Charge balance
                                       pe  =  -2.740      Adjusted to redox equilibrium
       Specific Conductance (uS/cm, 25 oC) = 2694
                          Density (g/cm3)  =   0.99911
                        Activity of water  =   0.999
                           Ionic strength  =  4.256e-002
                       Mass of water (kg)  =  1.000e+000
                 Total alkalinity (eq/kg)  =  1.626e-002
                       Total CO2 (mol/kg)  =  2.999e-002
                      Temperature (deg C)  =  25.000
                  Electrical balance (eq)  = -5.071e-002
 Percent error, 100*(Cat-|An|)/(Cat+|An|)  = -100.00
                               Iterations  =  32
                                  Total H  = 1.110724e+002
                                  Total O  = 5.566996e+001

----------------------------Distribution of species----------------------------

                                                   Log       Log         Log 
   Species                 Molality    Activity  Molality  Activity     Gamma

   H+                    5.794e-007  4.985e-007    -6.237    -6.302    -0.065
   OH-                   2.440e-008  2.006e-008    -7.613    -7.698    -0.085
   H2O                   5.551e+001  9.991e-001     1.744    -0.000     0.000
C(-4)           1.134e-006
   CH4                   1.134e-006  1.145e-006    -5.945    -5.941     0.004
C(4)            2.999e-002
   HCO3-                 1.553e-002  1.301e-002    -1.809    -1.886    -0.077
   CO2                   1.445e-002  1.460e-002    -1.840    -1.836     0.004
   CO3-2                 2.486e-006  1.224e-006    -5.604    -5.912    -0.308
   ZnHCO3+               3.994e-015  3.318e-015   -14.399   -14.479    -0.081
   ZnCO3                 4.898e-016  4.947e-016   -15.310   -15.306     0.004
   Zn(CO3)2-2            2.719e-017  1.294e-017   -16.566   -16.888    -0.322
   FeHCO3+               1.111e-019  9.225e-020   -18.954   -19.035    -0.081
   FeCO3                 2.061e-021  2.082e-021   -20.686   -20.682     0.004
Fe(2)           2.410e-017
   Fe(HS)2               2.201e-017  2.223e-017   -16.657   -16.653     0.004
   Fe(HS)3-              1.729e-018  1.436e-018   -17.762   -17.843    -0.081
   Fe+2                  1.411e-019  7.090e-020   -18.851   -19.149    -0.299
   FeHCO3+               1.111e-019  9.225e-020   -18.954   -19.035    -0.081
   FeSO4                 1.039e-019  1.049e-019   -18.983   -18.979     0.004
   FeCO3                 2.061e-021  2.082e-021   -20.686   -20.682     0.004
   FeOH+                 5.410e-023  4.493e-023   -22.267   -22.347    -0.081
   FeHSO4+               4.140e-025  3.438e-025   -24.383   -24.464    -0.081
Fe(3)           1.547e-028
   Fe(OH)2+              1.273e-028  1.057e-028   -27.895   -27.976    -0.081
   Fe(OH)3               2.704e-029  2.730e-029   -28.568   -28.564     0.004
   FeOH+2                3.347e-031  1.593e-031   -30.475   -30.798    -0.322
   Fe(OH)4-              6.008e-032  4.990e-032   -31.221   -31.302    -0.081
   FeSO4+                1.353e-033  1.124e-033   -32.869   -32.949    -0.081
   Fe(SO4)2-             2.463e-034  2.046e-034   -33.609   -33.689    -0.081
   Fe+3                  4.763e-035  1.231e-035   -34.322   -34.910    -0.588
   FeHSO4+2              3.151e-039  1.500e-039   -38.502   -38.824    -0.322
   Fe2(OH)2+4            0.000e+000  0.000e+000   -58.876   -60.165    -1.290
   Fe3(OH)4+5            0.000e+000  0.000e+000   -83.806   -85.821    -2.015
H(0)            1.054e-010
   H2                    5.268e-011  5.320e-011   -10.278   -10.274     0.004
O(0)            0.000e+000
   O2                    0.000e+000  0.000e+000   -71.837   -71.833     0.004
S(-2)           3.281e-003
   H2S                   2.560e-003  2.585e-003    -2.592    -2.587     0.004
   HS-                   7.212e-004  5.931e-004    -3.142    -3.227    -0.085
   S-2                   2.961e-010  1.437e-010    -9.529    -9.843    -0.314
   Fe(HS)2               2.201e-017  2.223e-017   -16.657   -16.653     0.004
   Fe(HS)3-              1.729e-018  1.436e-018   -17.762   -17.843    -0.081
S(6)            1.722e-002
   SO4-2                 1.722e-002  8.323e-003    -1.764    -2.080    -0.316
   HSO4-                 4.856e-007  4.034e-007    -6.314    -6.394    -0.081
   ZnSO4                 3.913e-015  3.952e-015   -14.407   -14.403     0.004
   Zn(SO4)2-2            5.616e-016  2.673e-016   -15.251   -15.573    -0.322
   FeSO4                 1.039e-019  1.049e-019   -18.983   -18.979     0.004
   FeHSO4+               4.140e-025  3.438e-025   -24.383   -24.464    -0.081
   FeSO4+                1.353e-033  1.124e-033   -32.869   -32.949    -0.081
   Fe(SO4)2-             2.463e-034  2.046e-034   -33.609   -33.689    -0.081
   FeHSO4+2              3.151e-039  1.500e-039   -38.502   -38.824    -0.322
Zn              1.317e-014
   Zn+2                  4.174e-015  2.026e-015   -14.379   -14.693    -0.314
   ZnHCO3+               3.994e-015  3.318e-015   -14.399   -14.479    -0.081
   ZnSO4                 3.913e-015  3.952e-015   -14.407   -14.403     0.004
   Zn(SO4)2-2            5.616e-016  2.673e-016   -15.251   -15.573    -0.322
   ZnCO3                 4.898e-016  4.947e-016   -15.310   -15.306     0.004
   Zn(CO3)2-2            2.719e-017  1.294e-017   -16.566   -16.888    -0.322
   ZnOH+                 5.359e-018  4.451e-018   -17.271   -17.352    -0.081
   Zn(OH)2               1.014e-019  1.024e-019   -18.994   -18.990     0.004
   Zn(OH)3-              7.816e-025  6.492e-025   -24.107   -24.188    -0.081
   Zn(OH)4-2             4.332e-031  2.062e-031   -30.363   -30.686    -0.322

------------------------------Saturation indices-------------------------------

	Phase               SI log IAP  log KT

	CH4(g)           -3.08   -5.94   -2.86  CH4
	CO2(g)           -0.37   -1.84   -1.47  CO2
	Fe(OH)3(a)      -20.89  -16.00    4.89  Fe(OH)3
	FeS(ppt)        -12.16  -16.07   -3.92  FeS
	Goethite        -15.00  -16.00   -1.00  FeOOH
	H2(g)            -7.12  -10.27   -3.15  H2
	H2O(g)           -1.51   -0.00    1.51  H2O
	H2S(g)           -1.59   -2.59   -1.00  H2S
	Hematite        -28.00  -32.01   -4.01  Fe2O3
	Mackinawite     -11.43  -16.07   -4.65  FeS
	Melanterite     -19.02  -21.23   -2.21  FeSO4:7H2O
	O2(g)           -68.94  -71.83   -2.89  O2
	Pyrite            0.00  -18.48  -18.48  FeS2
	Siderite        -14.17  -25.06  -10.89  FeCO3
	Smithsonite     -10.61  -20.61  -10.00  ZnCO3
	Sphalerite        0.00  -11.62  -11.62  ZnS
	Sulfur           -0.35    4.54    4.88  S
	Zn(OH)2(e)      -13.59   -2.09   11.50  Zn(OH)2

------------------
End of simulation.
------------------

------------------------------------
Reading input data for simulation 2.
------------------------------------

-----------
End of run.
-----------

