   Input file: salt_ec
  Output file: salt_ec.out
Database file: ../database/phreeqc.dat

------------------
Reading data base.
------------------

	SOLUTION_MASTER_SPECIES
	SOLUTION_SPECIES
	PHASES
	EXCHANGE_MASTER_SPECIES
	EXCHANGE_SPECIES
	SURFACE_MASTER_SPECIES
	SURFACE_SPECIES
	RATES
	END
------------------------------------
Reading input data for simulation 1.
------------------------------------

	DATABASE ../database/phreeqc.dat
	PRINT
	 warning 0
	SELECTED_OUTPUT
	 file salt_ec.prn
	 reset false
	USER_PUNCH
	 heading conc_Cl EC_20 I
	 start
	 10 punch tot("Cl"), SC * 0.89 * 298 / 293, mu
	 end
	SOLUTION_SPREAD
	 temp 20
	 units mol/L
	K	Cl	HB_EC
	0.067069081	 1 charge	8200
	0.134138162	 1 charge	15700
	0.202548625	 1 charge	22700
	0.270959088	 1 charge	29500
	0.340710932	 1 charge	36500
	0.409121395	 1 charge	43600
	0.478873239	 1 charge	50600
	0.549966465	 1 charge	57600
	0.690811536	 1 charge	71900
	0.83433937	 1 charge	86200
	0.979208585	 1 charge	100000
	1.052984574	 1 charge	108000
	END
WARNING: Could not find element in database, HB_EC.
	Concentration is set to zero.
-------------------------------------------
Beginning of initial solution calculations.
-------------------------------------------

Initial solution 1.	

-----------------------------Solution composition------------------------------

	Elements           Molality       Moles

	Cl               6.972e-002  6.972e-002  Charge balance
	K                6.972e-002  6.972e-002

----------------------------Description of solution----------------------------

                                       pH  =   7.000    
                                       pe  =   4.000    
       Specific Conductance (uS/cm, 25 oC) = 9083
                          Density (g/cm3)  =   1.00152
                        Activity of water  =   0.998
                           Ionic strength  =  6.972e-002
                       Mass of water (kg)  =  1.000e+000
                 Total alkalinity (eq/kg)  = -3.123e-008
                    Total carbon (mol/kg)  =  0.000e+000
                       Total CO2 (mol/kg)  =  0.000e+000
                      Temperature (deg C)  =  20.000
                  Electrical balance (eq)  = -5.467e-010
 Percent error, 100*(Cat-|An|)/(Cat+|An|)  =  -0.00
                               Iterations  =   5
                                  Total H  = 1.110124e+002
                                  Total O  = 5.550622e+001

----------------------------Distribution of species----------------------------

                                                   Log       Log         Log 
   Species                 Molality    Activity  Molality  Activity     Gamma

   H+                    1.188e-007  1.000e-007    -6.925    -7.000    -0.075
   OH-                   8.574e-008  6.773e-008    -7.067    -7.169    -0.102
   H2O                   5.551e+001  9.976e-001     1.744    -0.001     0.000
Cl              6.972e-002
   Cl-                   6.972e-002  5.521e-002    -1.157    -1.258    -0.101
H(0)            1.466e-025
   H2                    7.329e-026  7.447e-026   -25.135   -25.128     0.007
K               6.972e-002
   K+                    6.972e-002  5.521e-002    -1.157    -1.258    -0.101
   KOH                   1.879e-009  1.910e-009    -8.726    -8.719     0.007
O(0)            0.000e+000
   O2                    0.000e+000  0.000e+000   -43.774   -43.767     0.007

------------------------------Saturation indices-------------------------------

	Phase               SI log IAP  log KT

	H2(g)           -22.00  -25.13   -3.13  H2
	H2O(g)           -1.64   -0.00    1.64  H2O
	O2(g)           -40.91  -43.77   -2.85  O2

Initial solution 2.	

-----------------------------Solution composition------------------------------

	Elements           Molality       Moles

	Cl               1.398e-001  1.398e-001  Charge balance
	K                1.398e-001  1.398e-001

----------------------------Description of solution----------------------------

                                       pH  =   7.000    
                                       pe  =   4.000    
       Specific Conductance (uS/cm, 25 oC) = 17506
                          Density (g/cm3)  =   1.00481
                        Activity of water  =   0.995
                           Ionic strength  =  1.398e-001
                       Mass of water (kg)  =  1.000e+000
                 Total alkalinity (eq/kg)  = -2.791e-008
                    Total carbon (mol/kg)  =  0.000e+000
                       Total CO2 (mol/kg)  =  0.000e+000
                      Temperature (deg C)  =  20.000
                  Electrical balance (eq)  = -9.958e-015
 Percent error, 100*(Cat-|An|)/(Cat+|An|)  =  -0.00
                               Iterations  =   5
                                  Total H  = 1.110124e+002
                                  Total O  = 5.550622e+001

----------------------------Distribution of species----------------------------

                                                   Log       Log         Log 
   Species                 Molality    Activity  Molality  Activity     Gamma

   H+                    1.230e-007  1.000e-007    -6.910    -7.000    -0.090
   OH-                   9.161e-008  6.757e-008    -7.038    -7.170    -0.132
   H2O                   5.551e+001  9.952e-001     1.744    -0.002     0.000
Cl              1.398e-001
   Cl-                   1.398e-001  1.036e-001    -0.854    -0.985    -0.130
H(0)            1.442e-025
   H2                    7.211e-026  7.447e-026   -25.142   -25.128     0.014
K               1.398e-001
   K+                    1.398e-001  1.036e-001    -0.854    -0.985    -0.130
   KOH                   3.463e-009  3.576e-009    -8.461    -8.447     0.014
O(0)            0.000e+000
   O2                    0.000e+000  0.000e+000   -43.783   -43.769     0.014

------------------------------Saturation indices-------------------------------

	Phase               SI log IAP  log KT

	H2(g)           -22.00  -25.13   -3.13  H2
	H2O(g)           -1.64   -0.00    1.64  H2O
	O2(g)           -40.91  -43.77   -2.85  O2

Initial solution 3.	

-----------------------------Solution composition------------------------------

	Elements           Molality       Moles

	Cl               2.117e-001  2.117e-001  Charge balance
	K                2.117e-001  2.117e-001

----------------------------Description of solution----------------------------

                                       pH  =   7.000    
                                       pe  =   4.000    
       Specific Conductance (uS/cm, 25 oC) = 25826
                          Density (g/cm3)  =   1.00815
                        Activity of water  =   0.993
                           Ionic strength  =  2.117e-001
                       Mass of water (kg)  =  1.000e+000
                 Total alkalinity (eq/kg)  = -2.489e-008
                    Total carbon (mol/kg)  =  0.000e+000
                       Total CO2 (mol/kg)  =  0.000e+000
                      Temperature (deg C)  =  20.000
                  Electrical balance (eq)  = -1.585e-010
 Percent error, 100*(Cat-|An|)/(Cat+|An|)  =  -0.00
                               Iterations  =   5
                                  Total H  = 1.110124e+002
                                  Total O  = 5.550622e+001

----------------------------Distribution of species----------------------------

                                                   Log       Log         Log 
   Species                 Molality    Activity  Molality  Activity     Gamma

   H+                    1.255e-007  1.000e-007    -6.901    -7.000    -0.099
   OH-                   9.568e-008  6.740e-008    -7.019    -7.171    -0.152
   H2O                   5.551e+001  9.928e-001     1.744    -0.003     0.000
Cl              2.117e-001
   Cl-                   2.117e-001  1.502e-001    -0.674    -0.823    -0.149
H(0)            1.419e-025
   H2                    7.093e-026  7.447e-026   -25.149   -25.128     0.021
K               2.117e-001
   K+                    2.117e-001  1.502e-001    -0.674    -0.823    -0.149
   KOH                   4.926e-009  5.172e-009    -8.308    -8.286     0.021
O(0)            0.000e+000
   O2                    0.000e+000  0.000e+000   -43.793   -43.771     0.021

------------------------------Saturation indices-------------------------------

	Phase               SI log IAP  log KT

	H2(g)           -22.00  -25.13   -3.13  H2
	H2O(g)           -1.64   -0.00    1.64  H2O
	O2(g)           -40.92  -43.77   -2.85  O2

Initial solution 4.	

-----------------------------Solution composition------------------------------

	Elements           Molality       Moles

	Cl               2.840e-001  2.840e-001  Charge balance
	K                2.840e-001  2.840e-001

----------------------------Description of solution----------------------------

                                       pH  =   7.000    
                                       pe  =   4.000    
       Specific Conductance (uS/cm, 25 oC) = 33989
                          Density (g/cm3)  =   1.01148
                        Activity of water  =   0.990
                           Ionic strength  =  2.840e-001
                       Mass of water (kg)  =  1.000e+000
                 Total alkalinity (eq/kg)  = -2.220e-008
                    Total carbon (mol/kg)  =  0.000e+000
                       Total CO2 (mol/kg)  =  0.000e+000
                      Temperature (deg C)  =  20.000
                  Electrical balance (eq)  = -3.845e-014
 Percent error, 100*(Cat-|An|)/(Cat+|An|)  =  -0.00
                               Iterations  =   6
                                  Total H  = 1.110124e+002
                                  Total O  = 5.550622e+001

----------------------------Distribution of species----------------------------

                                                   Log       Log         Log 
   Species                 Molality    Activity  Molality  Activity     Gamma

   H+                    1.273e-007  1.000e-007    -6.895    -7.000    -0.105
   OH-                   9.879e-008  6.724e-008    -7.005    -7.172    -0.167
   H2O                   5.551e+001  9.903e-001     1.744    -0.004     0.000
Cl              2.840e-001
   Cl-                   2.840e-001  1.952e-001    -0.547    -0.709    -0.163
H(0)            1.395e-025
   H2                    6.976e-026  7.447e-026   -25.156   -25.128     0.028
K               2.840e-001
   K+                    2.840e-001  1.952e-001    -0.547    -0.709    -0.163
   KOH                   6.279e-009  6.704e-009    -8.202    -8.174     0.028
O(0)            0.000e+000
   O2                    0.000e+000  0.000e+000   -43.802   -43.774     0.028

------------------------------Saturation indices-------------------------------

	Phase               SI log IAP  log KT

	H2(g)           -22.00  -25.13   -3.13  H2
	H2O(g)           -1.65   -0.00    1.64  H2O
	O2(g)           -40.92  -43.77   -2.85  O2

Initial solution 5.	

-----------------------------Solution composition------------------------------

	Elements           Molality       Moles

	Cl               3.582e-001  3.582e-001  Charge balance
	K                3.582e-001  3.582e-001

----------------------------Description of solution----------------------------

                                       pH  =   7.000    
                                       pe  =   4.000    
       Specific Conductance (uS/cm, 25 oC) = 42211
                          Density (g/cm3)  =   1.01487
                        Activity of water  =   0.988
                           Ionic strength  =  3.582e-001
                       Mass of water (kg)  =  1.000e+000
                 Total alkalinity (eq/kg)  = -1.973e-008
                    Total carbon (mol/kg)  =  0.000e+000
                       Total CO2 (mol/kg)  =  0.000e+000
                      Temperature (deg C)  =  20.000
                  Electrical balance (eq)  = -1.510e-010
 Percent error, 100*(Cat-|An|)/(Cat+|An|)  =  -0.00
                               Iterations  =   6
                                  Total H  = 1.110124e+002
                                  Total O  = 5.550622e+001

----------------------------Distribution of species----------------------------

                                                   Log       Log         Log 
   Species                 Molality    Activity  Molality  Activity     Gamma

   H+                    1.286e-007  1.000e-007    -6.891    -7.000    -0.109
   OH-                   1.013e-007  6.706e-008    -6.994    -7.174    -0.179
   H2O                   5.551e+001  9.878e-001     1.744    -0.005     0.000
Cl              3.582e-001
   Cl-                   3.582e-001  2.400e-001    -0.446    -0.620    -0.174
H(0)            1.372e-025
   H2                    6.858e-026  7.447e-026   -25.164   -25.128     0.036
K               3.582e-001
   K+                    3.582e-001  2.400e-001    -0.446    -0.620    -0.174
   KOH                   7.569e-009  8.220e-009    -8.121    -8.085     0.036
O(0)            0.000e+000
   O2                    0.000e+000  0.000e+000   -43.812   -43.776     0.036

------------------------------Saturation indices-------------------------------

	Phase               SI log IAP  log KT

	H2(g)           -22.00  -25.13   -3.13  H2
	H2O(g)           -1.65   -0.01    1.64  H2O
	O2(g)           -40.92  -43.78   -2.85  O2

Initial solution 6.	

-----------------------------Solution composition------------------------------

	Elements           Molality       Moles

	Cl               4.313e-001  4.313e-001  Charge balance
	K                4.313e-001  4.313e-001

----------------------------Description of solution----------------------------

                                       pH  =   7.000    
                                       pe  =   4.000    
       Specific Conductance (uS/cm, 25 oC) = 49026
                          Density (g/cm3)  =   1.01817
                        Activity of water  =   0.985
                           Ionic strength  =  4.313e-001
                       Mass of water (kg)  =  1.000e+000
                 Total alkalinity (eq/kg)  = -1.752e-008
                    Total carbon (mol/kg)  =  0.000e+000
                       Total CO2 (mol/kg)  =  0.000e+000
                      Temperature (deg C)  =  20.000
                  Electrical balance (eq)  = -1.464e-015
 Percent error, 100*(Cat-|An|)/(Cat+|An|)  =  -0.00
                               Iterations  =   7
                                  Total H  = 1.110124e+002
                                  Total O  = 5.550622e+001

----------------------------Distribution of species----------------------------

                                                   Log       Log         Log 
   Species                 Molality    Activity  Molality  Activity     Gamma

   H+                    1.297e-007  1.000e-007    -6.887    -7.000    -0.113
   OH-                   1.034e-007  6.690e-008    -6.985    -7.175    -0.189
   H2O                   5.551e+001  9.853e-001     1.744    -0.006     0.000
Cl              4.313e-001
   Cl-                   4.313e-001  2.831e-001    -0.365    -0.548    -0.183
H(0)            1.349e-025
   H2                    6.743e-026  7.447e-026   -25.171   -25.128     0.043
K               4.313e-001
   K+                    4.313e-001  2.831e-001    -0.365    -0.548    -0.183
   KOH                   8.759e-009  9.674e-009    -8.058    -8.014     0.043
O(0)            0.000e+000
   O2                    0.000e+000  0.000e+000   -43.821   -43.778     0.043

------------------------------Saturation indices-------------------------------

	Phase               SI log IAP  log KT

	H2(g)           -22.00  -25.13   -3.13  H2
	H2O(g)           -1.65   -0.01    1.64  H2O
	O2(g)           -40.92  -43.78   -2.85  O2

Initial solution 7.	

-----------------------------Solution composition------------------------------

	Elements           Molality       Moles

	Cl               5.063e-001  5.063e-001  Charge balance
	K                5.063e-001  5.063e-001

----------------------------Description of solution----------------------------

                                       pH  =   7.000    
                                       pe  =   4.000    
       Specific Conductance (uS/cm, 25 oC) = 55544
                          Density (g/cm3)  =   1.02154
                        Activity of water  =   0.983
                           Ionic strength  =  5.063e-001
                       Mass of water (kg)  =  1.000e+000
                 Total alkalinity (eq/kg)  = -1.547e-008
                    Total carbon (mol/kg)  =  0.000e+000
                       Total CO2 (mol/kg)  =  0.000e+000
                      Temperature (deg C)  =  20.000
                  Electrical balance (eq)  = -3.629e-012
 Percent error, 100*(Cat-|An|)/(Cat+|An|)  =  -0.00
                               Iterations  =   7
                                  Total H  = 1.110124e+002
                                  Total O  = 5.550622e+001

----------------------------Distribution of species----------------------------

                                                   Log       Log         Log 
   Species                 Molality    Activity  Molality  Activity     Gamma

   H+                    1.306e-007  1.000e-007    -6.884    -7.000    -0.116
   OH-                   1.053e-007  6.672e-008    -6.978    -7.176    -0.198
   H2O                   5.551e+001  9.828e-001     1.744    -0.008     0.000
Cl              5.063e-001
   Cl-                   5.063e-001  3.266e-001    -0.296    -0.486    -0.190
H(0)            1.326e-025
   H2                    6.628e-026  7.447e-026   -25.179   -25.128     0.051
K               5.063e-001
   K+                    5.063e-001  3.266e-001    -0.296    -0.486    -0.190
   KOH                   9.906e-009  1.113e-008    -8.004    -7.953     0.051
O(0)            0.000e+000
   O2                    0.000e+000  0.000e+000   -43.831   -43.780     0.051

------------------------------Saturation indices-------------------------------

	Phase               SI log IAP  log KT

	H2(g)           -22.00  -25.13   -3.13  H2
	H2O(g)           -1.65   -0.01    1.64  H2O
	O2(g)           -40.93  -43.78   -2.85  O2

Initial solution 8.	

-----------------------------Solution composition------------------------------

	Elements           Molality       Moles

	Cl               5.832e-001  5.832e-001  Charge balance
	K                5.832e-001  5.832e-001

----------------------------Description of solution----------------------------

                                       pH  =   7.000    
                                       pe  =   4.000    
       Specific Conductance (uS/cm, 25 oC) = 61814
                          Density (g/cm3)  =   1.02496
                        Activity of water  =   0.980
                           Ionic strength  =  5.832e-001
                       Mass of water (kg)  =  1.000e+000
                 Total alkalinity (eq/kg)  = -1.355e-008
                    Total carbon (mol/kg)  =  0.000e+000
                       Total CO2 (mol/kg)  =  0.000e+000
                      Temperature (deg C)  =  20.000
                  Electrical balance (eq)  = -1.356e-009
 Percent error, 100*(Cat-|An|)/(Cat+|An|)  =  -0.00
                               Iterations  =   7
                                  Total H  = 1.110124e+002
                                  Total O  = 5.550622e+001

----------------------------Distribution of species----------------------------

                                                   Log       Log         Log 
   Species                 Molality    Activity  Molality  Activity     Gamma

   H+                    1.314e-007  1.000e-007    -6.881    -7.000    -0.119
   OH-                   1.069e-007  6.655e-008    -6.971    -7.177    -0.206
   H2O                   5.551e+001  9.802e-001     1.744    -0.009     0.000
Cl              5.832e-001
   Cl-                   5.832e-001  3.706e-001    -0.234    -0.431    -0.197
H(0)            1.302e-025
   H2                    6.511e-026  7.447e-026   -25.186   -25.128     0.058
K               5.832e-001
   K+                    5.832e-001  3.706e-001    -0.234    -0.431    -0.197
   KOH                   1.101e-008  1.259e-008    -7.958    -7.900     0.058
O(0)            0.000e+000
   O2                    0.000e+000  0.000e+000   -43.841   -43.783     0.058

------------------------------Saturation indices-------------------------------

	Phase               SI log IAP  log KT

	H2(g)           -22.00  -25.13   -3.13  H2
	H2O(g)           -1.65   -0.01    1.64  H2O
	O2(g)           -40.93  -43.78   -2.85  O2

Initial solution 9.	

-----------------------------Solution composition------------------------------

	Elements           Molality       Moles

	Cl               7.368e-001  7.368e-001  Charge balance
	K                7.368e-001  7.368e-001

----------------------------Description of solution----------------------------

                                       pH  =   7.000    
                                       pe  =   4.000    
       Specific Conductance (uS/cm, 25 oC) = 73272
                          Density (g/cm3)  =   1.03172
                        Activity of water  =   0.975
                           Ionic strength  =  7.368e-001
                       Mass of water (kg)  =  1.000e+000
                 Total alkalinity (eq/kg)  = -1.017e-008
                    Total carbon (mol/kg)  =  0.000e+000
                       Total CO2 (mol/kg)  =  0.000e+000
                      Temperature (deg C)  =  20.000
                  Electrical balance (eq)  = -9.906e-012
 Percent error, 100*(Cat-|An|)/(Cat+|An|)  =  -0.00
                               Iterations  =   8
                                  Total H  = 1.110124e+002
                                  Total O  = 5.550622e+001

----------------------------Distribution of species----------------------------

                                                   Log       Log         Log 
   Species                 Molality    Activity  Molality  Activity     Gamma

   H+                    1.327e-007  1.000e-007    -6.877    -7.000    -0.123
   OH-                   1.095e-007  6.619e-008    -6.961    -7.179    -0.219
   H2O                   5.551e+001  9.749e-001     1.744    -0.011     0.000
Cl              7.368e-001
   Cl-                   7.368e-001  4.570e-001    -0.133    -0.340    -0.207
H(0)            1.257e-025
   H2                    6.285e-026  7.447e-026   -25.202   -25.128     0.074
K               7.368e-001
   K+                    7.368e-001  4.570e-001    -0.133    -0.340    -0.207
   KOH                   1.304e-008  1.545e-008    -7.885    -7.811     0.074
O(0)            0.000e+000
   O2                    0.000e+000  0.000e+000   -43.861   -43.787     0.074

------------------------------Saturation indices-------------------------------

	Phase               SI log IAP  log KT

	H2(g)           -22.00  -25.13   -3.13  H2
	H2O(g)           -1.65   -0.01    1.64  H2O
	O2(g)           -40.93  -43.79   -2.85  O2

Initial solution 10.	

-----------------------------Solution composition------------------------------

	Elements           Molality       Moles

	Cl               8.953e-001  8.953e-001  Charge balance
	K                8.953e-001  8.953e-001

----------------------------Description of solution----------------------------

                                       pH  =   7.000    
                                       pe  =   4.000    
       Specific Conductance (uS/cm, 25 oC) = 83833
                          Density (g/cm3)  =   1.03859
                        Activity of water  =   0.970
                           Ionic strength  =  8.953e-001
                       Mass of water (kg)  =  1.000e+000
                 Total alkalinity (eq/kg)  = -7.204e-009
                    Total carbon (mol/kg)  =  0.000e+000
                       Total CO2 (mol/kg)  =  0.000e+000
                      Temperature (deg C)  =  20.000
                  Electrical balance (eq)  = -2.634e-012
 Percent error, 100*(Cat-|An|)/(Cat+|An|)  =  -0.00
                               Iterations  =   9
                                  Total H  = 1.110124e+002
                                  Total O  = 5.550622e+001

----------------------------Distribution of species----------------------------

                                                   Log       Log         Log 
   Species                 Molality    Activity  Molality  Activity     Gamma

   H+                    1.337e-007  1.000e-007    -6.874    -7.000    -0.126
   OH-                   1.116e-007  6.583e-008    -6.952    -7.182    -0.229
   H2O                   5.551e+001  9.696e-001     1.744    -0.013     0.000
Cl              8.953e-001
   Cl-                   8.953e-001  5.447e-001    -0.048    -0.264    -0.216
H(0)            1.212e-025
   H2                    6.060e-026  7.447e-026   -25.218   -25.128     0.090
K               8.953e-001
   K+                    8.953e-001  5.447e-001    -0.048    -0.264    -0.216
   KOH                   1.490e-008  1.831e-008    -7.827    -7.737     0.090
O(0)            0.000e+000
   O2                    0.000e+000  0.000e+000   -43.882   -43.792     0.090

------------------------------Saturation indices-------------------------------

	Phase               SI log IAP  log KT

	H2(g)           -22.00  -25.13   -3.13  H2
	H2O(g)           -1.65   -0.01    1.64  H2O
	O2(g)           -40.94  -43.79   -2.85  O2

Initial solution 11.	

-----------------------------Solution composition------------------------------

	Elements           Molality       Moles

	Cl               1.057e+000  1.057e+000  Charge balance
	K                1.057e+000  1.057e+000

----------------------------Description of solution----------------------------

                                       pH  =   7.000    
                                       pe  =   4.000    
       Specific Conductance (uS/cm, 25 oC) = 93545
                          Density (g/cm3)  =   1.04548
                        Activity of water  =   0.964
                           Ionic strength  =  1.057e+000
                       Mass of water (kg)  =  1.000e+000
                 Total alkalinity (eq/kg)  = -4.624e-009
                    Total carbon (mol/kg)  =  0.000e+000
                       Total CO2 (mol/kg)  =  0.000e+000
                      Temperature (deg C)  =  20.000
                  Electrical balance (eq)  = -3.995e-012
 Percent error, 100*(Cat-|An|)/(Cat+|An|)  =  -0.00
                               Iterations  =   9
                                  Total H  = 1.110124e+002
                                  Total O  = 5.550622e+001

----------------------------Distribution of species----------------------------

                                                   Log       Log         Log 
   Species                 Molality    Activity  Molality  Activity     Gamma

   H+                    1.345e-007  1.000e-007    -6.871    -7.000    -0.129
   OH-                   1.133e-007  6.545e-008    -6.946    -7.184    -0.238
   H2O                   5.551e+001  9.641e-001     1.744    -0.016     0.000
Cl              1.057e+000
   Cl-                   1.057e+000  6.333e-001     0.024    -0.198    -0.223
H(0)            1.168e-025
   H2                    5.838e-026  7.447e-026   -25.234   -25.128     0.106
K               1.057e+000
   K+                    1.057e+000  6.333e-001     0.024    -0.198    -0.223
   KOH                   1.660e-008  2.117e-008    -7.780    -7.674     0.106
O(0)            0.000e+000
   O2                    0.000e+000  0.000e+000   -43.903   -43.797     0.106

------------------------------Saturation indices-------------------------------

	Phase               SI log IAP  log KT

	H2(g)           -22.00  -25.13   -3.13  H2
	H2O(g)           -1.66   -0.02    1.64  H2O
	O2(g)           -40.94  -43.80   -2.85  O2

Initial solution 12.	

-----------------------------Solution composition------------------------------

	Elements           Molality       Moles

	Cl               1.140e+000  1.140e+000  Charge balance
	K                1.140e+000  1.140e+000

----------------------------Description of solution----------------------------

                                       pH  =   7.000    
                                       pe  =   4.000    
       Specific Conductance (uS/cm, 25 oC) = 98176
                          Density (g/cm3)  =   1.04899
                        Activity of water  =   0.961
                           Ionic strength  =  1.140e+000
                       Mass of water (kg)  =  1.000e+000
                 Total alkalinity (eq/kg)  = -3.448e-009
                    Total carbon (mol/kg)  =  0.000e+000
                       Total CO2 (mol/kg)  =  0.000e+000
                      Temperature (deg C)  =  20.000
                  Electrical balance (eq)  = -1.166e-012
 Percent error, 100*(Cat-|An|)/(Cat+|An|)  =  -0.00
                               Iterations  =   9
                                  Total H  = 1.110124e+002
                                  Total O  = 5.550622e+001

----------------------------Distribution of species----------------------------

                                                   Log       Log         Log 
   Species                 Molality    Activity  Molality  Activity     Gamma

   H+                    1.349e-007  1.000e-007    -6.870    -7.000    -0.130
   OH-                   1.141e-007  6.526e-008    -6.943    -7.185    -0.243
   H2O                   5.551e+001  9.612e-001     1.744    -0.017     0.000
Cl              1.140e+000
   Cl-                   1.140e+000  6.786e-001     0.057    -0.168    -0.225
H(0)            1.145e-025
   H2                    5.727e-026  7.447e-026   -25.242   -25.128     0.114
K               1.140e+000
   K+                    1.140e+000  6.786e-001     0.057    -0.168    -0.225
   KOH                   1.739e-008  2.262e-008    -7.760    -7.646     0.114
O(0)            0.000e+000
   O2                    0.000e+000  0.000e+000   -43.914   -43.799     0.114

------------------------------Saturation indices-------------------------------

	Phase               SI log IAP  log KT

	H2(g)           -22.00  -25.13   -3.13  H2
	H2O(g)           -1.66   -0.02    1.64  H2O
	O2(g)           -40.95  -43.80   -2.85  O2

------------------
End of simulation.
------------------

------------------------------------
Reading input data for simulation 2.
------------------------------------

	SOLUTION_SPREAD
	 temp 20
	 units mol/L
	Na	Cl	HB_EC
	0.085557837	 1 charge	8200
	0.172826831	 1 charge	16000
	0.258384668	 1 charge	23200
	0.345653662	 1 charge	30200
	0.434633812	 1 charge	37100
	0.523613963	 1 charge	44000
	0.612594114	 1 charge	50700
	0.684462697	 1 charge	56000
	0.865845311	 1 charge	68900
	1.031827515	 1 charge	80000
	1.368925394	 1 charge	101000
	1.676933607	 1 charge	118000
	END
WARNING: Could not find element in database, HB_EC.
	Concentration is set to zero.
-------------------------------------------
Beginning of initial solution calculations.
-------------------------------------------

Initial solution 13.	

-----------------------------Solution composition------------------------------

	Elements           Molality       Moles

	Cl               8.888e-002  8.888e-002  Charge balance
	Na               8.888e-002  8.888e-002

----------------------------Description of solution----------------------------

                                       pH  =   7.000    
                                       pe  =   4.000    
       Specific Conductance (uS/cm, 25 oC) = 9672
                          Density (g/cm3)  =   1.00191
                        Activity of water  =   0.997
                           Ionic strength  =  8.888e-002
                       Mass of water (kg)  =  1.000e+000
                 Total alkalinity (eq/kg)  = -2.808e-008
                    Total carbon (mol/kg)  =  0.000e+000
                       Total CO2 (mol/kg)  =  0.000e+000
                      Temperature (deg C)  =  20.000
                  Electrical balance (eq)  = -6.468e-012
 Percent error, 100*(Cat-|An|)/(Cat+|An|)  =  -0.00
                               Iterations  =   5
                                  Total H  = 1.110124e+002
                                  Total O  = 5.550622e+001

----------------------------Distribution of species----------------------------

                                                   Log       Log         Log 
   Species                 Molality    Activity  Molality  Activity     Gamma

   H+                    1.203e-007  1.000e-007    -6.920    -7.000    -0.080
   OH-                   8.765e-008  6.769e-008    -7.057    -7.169    -0.112
   H2O                   5.551e+001  9.970e-001     1.744    -0.001     0.000
Cl              8.888e-002
   Cl-                   8.888e-002  6.885e-002    -1.051    -1.162    -0.111
H(0)            1.459e-025
   H2                    7.296e-026  7.447e-026   -25.137   -25.128     0.009
Na              8.888e-002
   Na+                   8.888e-002  7.034e-002    -1.051    -1.153    -0.102
   NaOH                  4.539e-009  4.633e-009    -8.343    -8.334     0.009
O(0)            0.000e+000
   O2                    0.000e+000  0.000e+000   -43.777   -43.768     0.009

------------------------------Saturation indices-------------------------------

	Phase               SI log IAP  log KT

	H2(g)           -22.00  -25.13   -3.13  H2
	H2O(g)           -1.64   -0.00    1.64  H2O
	Halite           -3.89   -2.31    1.57  NaCl
	O2(g)           -40.91  -43.77   -2.85  O2

Initial solution 14.	

-----------------------------Solution composition------------------------------

	Elements           Molality       Moles

	Cl               1.799e-001  1.799e-001  Charge balance
	Na               1.799e-001  1.799e-001

----------------------------Description of solution----------------------------

                                       pH  =   7.000    
                                       pe  =   4.000    
       Specific Conductance (uS/cm, 25 oC) = 18852
                          Density (g/cm3)  =   1.00566
                        Activity of water  =   0.994
                           Ionic strength  =  1.799e-001
                       Mass of water (kg)  =  1.000e+000
                 Total alkalinity (eq/kg)  = -2.196e-008
                    Total carbon (mol/kg)  =  0.000e+000
                       Total CO2 (mol/kg)  =  0.000e+000
                      Temperature (deg C)  =  20.000
                  Electrical balance (eq)  = -2.652e-012
 Percent error, 100*(Cat-|An|)/(Cat+|An|)  =  -0.00
                               Iterations  =   5
                                  Total H  = 1.110124e+002
                                  Total O  = 5.550622e+001

----------------------------Distribution of species----------------------------

                                                   Log       Log         Log 
   Species                 Molality    Activity  Molality  Activity     Gamma

   H+                    1.245e-007  1.000e-007    -6.905    -7.000    -0.095
   OH-                   9.404e-008  6.748e-008    -7.027    -7.171    -0.144
   H2O                   5.551e+001  9.939e-001     1.744    -0.003     0.000
Cl              1.799e-001
   Cl-                   1.799e-001  1.299e-001    -0.745    -0.886    -0.141
H(0)            1.429e-025
   H2                    7.145e-026  7.447e-026   -25.146   -25.128     0.018
Na              1.799e-001
   Na+                   1.799e-001  1.352e-001    -0.745    -0.869    -0.124
   NaOH                  8.515e-009  8.875e-009    -8.070    -8.052     0.018
O(0)            0.000e+000
   O2                    0.000e+000  0.000e+000   -43.788   -43.770     0.018

------------------------------Saturation indices-------------------------------

	Phase               SI log IAP  log KT

	H2(g)           -22.00  -25.13   -3.13  H2
	H2O(g)           -1.64   -0.00    1.64  H2O
	Halite           -3.33   -1.76    1.57  NaCl
	O2(g)           -40.92  -43.77   -2.85  O2

Initial solution 15.	

-----------------------------Solution composition------------------------------

	Elements           Molality       Moles

	Cl               2.695e-001  2.695e-001  Charge balance
	Na               2.695e-001  2.695e-001

----------------------------Description of solution----------------------------

                                       pH  =   7.000    
                                       pe  =   4.000    
       Specific Conductance (uS/cm, 25 oC) = 27626
                          Density (g/cm3)  =   1.00930
                        Activity of water  =   0.991
                           Ionic strength  =  2.695e-001
                       Mass of water (kg)  =  1.000e+000
                 Total alkalinity (eq/kg)  = -1.660e-008
                    Total carbon (mol/kg)  =  0.000e+000
                       Total CO2 (mol/kg)  =  0.000e+000
                      Temperature (deg C)  =  20.000
                  Electrical balance (eq)  = -7.740e-015
 Percent error, 100*(Cat-|An|)/(Cat+|An|)  =  -0.00
                               Iterations  =   6
                                  Total H  = 1.110124e+002
                                  Total O  = 5.550622e+001

----------------------------Distribution of species----------------------------

                                                   Log       Log         Log 
   Species                 Molality    Activity  Molality  Activity     Gamma

   H+                    1.270e-007  1.000e-007    -6.896    -7.000    -0.104
   OH-                   9.822e-008  6.727e-008    -7.008    -7.172    -0.164
   H2O                   5.551e+001  9.908e-001     1.744    -0.004     0.000
Cl              2.695e-001
   Cl-                   2.695e-001  1.863e-001    -0.569    -0.730    -0.160
H(0)            1.400e-025
   H2                    6.999e-026  7.447e-026   -25.155   -25.128     0.027
Na              2.695e-001
   Na+                   2.695e-001  1.971e-001    -0.569    -0.705    -0.136
   NaOH                  1.213e-008  1.291e-008    -7.916    -7.889     0.027
O(0)            0.000e+000
   O2                    0.000e+000  0.000e+000   -43.800   -43.773     0.027

------------------------------Saturation indices-------------------------------

	Phase               SI log IAP  log KT

	H2(g)           -22.00  -25.13   -3.13  H2
	H2O(g)           -1.65   -0.00    1.64  H2O
	Halite           -3.01   -1.43    1.57  NaCl
	O2(g)           -40.92  -43.77   -2.85  O2

Initial solution 16.	

-----------------------------Solution composition------------------------------

	Elements           Molality       Moles

	Cl               3.613e-001  3.613e-001  Charge balance
	Na               3.613e-001  3.613e-001

----------------------------Description of solution----------------------------

                                       pH  =   7.000    
                                       pe  =   4.000    
       Specific Conductance (uS/cm, 25 oC) = 36455
                          Density (g/cm3)  =   1.01300
                        Activity of water  =   0.988
                           Ionic strength  =  3.613e-001
                       Mass of water (kg)  =  1.000e+000
                 Total alkalinity (eq/kg)  = -1.163e-008
                    Total carbon (mol/kg)  =  0.000e+000
                       Total CO2 (mol/kg)  =  0.000e+000
                      Temperature (deg C)  =  20.000
                  Electrical balance (eq)  = -3.151e-010
 Percent error, 100*(Cat-|An|)/(Cat+|An|)  =  -0.00
                               Iterations  =   6
                                  Total H  = 1.110124e+002
                                  Total O  = 5.550622e+001

----------------------------Distribution of species----------------------------

                                                   Log       Log         Log 
   Species                 Molality    Activity  Molality  Activity     Gamma

   H+                    1.287e-007  1.000e-007    -6.890    -7.000    -0.110
   OH-                   1.014e-007  6.706e-008    -6.994    -7.174    -0.180
   H2O                   5.551e+001  9.877e-001     1.744    -0.005     0.000
Cl              3.613e-001
   Cl-                   3.613e-001  2.419e-001    -0.442    -0.616    -0.174
H(0)            1.371e-025
   H2                    6.853e-026  7.447e-026   -25.164   -25.128     0.036
Na              3.613e-001
   Na+                   3.613e-001  2.601e-001    -0.442    -0.585    -0.143
   NaOH                  1.562e-008  1.697e-008    -7.806    -7.770     0.036
O(0)            0.000e+000
   O2                    0.000e+000  0.000e+000   -43.812   -43.776     0.036

------------------------------Saturation indices-------------------------------

	Phase               SI log IAP  log KT

	H2(g)           -22.00  -25.13   -3.13  H2
	H2O(g)           -1.65   -0.01    1.64  H2O
	Halite           -2.77   -1.20    1.57  NaCl
	O2(g)           -40.92  -43.78   -2.85  O2

Initial solution 17.	

-----------------------------Solution composition------------------------------

	Elements           Molality       Moles

	Cl               4.553e-001  4.553e-001  Charge balance
	Na               4.553e-001  4.553e-001

----------------------------Description of solution----------------------------

                                       pH  =   7.000    
                                       pe  =   4.000    
       Specific Conductance (uS/cm, 25 oC) = 44135
                          Density (g/cm3)  =   1.01675
                        Activity of water  =   0.985
                           Ionic strength  =  4.553e-001
                       Mass of water (kg)  =  1.000e+000
                 Total alkalinity (eq/kg)  = -6.958e-009
                    Total carbon (mol/kg)  =  0.000e+000
                       Total CO2 (mol/kg)  =  0.000e+000
                      Temperature (deg C)  =  20.000
                  Electrical balance (eq)  = -5.515e-014
 Percent error, 100*(Cat-|An|)/(Cat+|An|)  =  -0.00
                               Iterations  =   7
                                  Total H  = 1.110124e+002
                                  Total O  = 5.550622e+001

----------------------------Distribution of species----------------------------

                                                   Log       Log         Log 
   Species                 Molality    Activity  Molality  Activity     Gamma

   H+                    1.300e-007  1.000e-007    -6.886    -7.000    -0.114
   OH-                   1.040e-007  6.684e-008    -6.983    -7.175    -0.192
   H2O                   5.551e+001  9.845e-001     1.744    -0.007     0.000
Cl              4.553e-001
   Cl-                   4.553e-001  2.971e-001    -0.342    -0.527    -0.185
H(0)            1.341e-025
   H2                    6.706e-026  7.447e-026   -25.174   -25.128     0.046
Na              4.553e-001
   Na+                   4.553e-001  3.248e-001    -0.342    -0.488    -0.147
   NaOH                  1.902e-008  2.112e-008    -7.721    -7.675     0.046
O(0)            0.000e+000
   O2                    0.000e+000  0.000e+000   -43.824   -43.779     0.046

------------------------------Saturation indices-------------------------------

	Phase               SI log IAP  log KT

	H2(g)           -22.00  -25.13   -3.13  H2
	H2O(g)           -1.65   -0.01    1.64  H2O
	Halite           -2.59   -1.02    1.57  NaCl
	O2(g)           -40.92  -43.78   -2.85  O2

Initial solution 18.	

-----------------------------Solution composition------------------------------

	Elements           Molality       Moles

	Cl               5.497e-001  5.497e-001  Charge balance
	Na               5.497e-001  5.497e-001

----------------------------Description of solution----------------------------

                                       pH  =   7.000    
                                       pe  =   4.000    
       Specific Conductance (uS/cm, 25 oC) = 51387
                          Density (g/cm3)  =   1.02049
                        Activity of water  =   0.981
                           Ionic strength  =  5.497e-001
                       Mass of water (kg)  =  1.000e+000
                 Total alkalinity (eq/kg)  = -2.607e-009
                    Total carbon (mol/kg)  =  0.000e+000
                       Total CO2 (mol/kg)  =  0.000e+000
                      Temperature (deg C)  =  20.000
                  Electrical balance (eq)  = -2.859e-010
 Percent error, 100*(Cat-|An|)/(Cat+|An|)  =  -0.00
                               Iterations  =   7
                                  Total H  = 1.110124e+002
                                  Total O  = 5.550622e+001

----------------------------Distribution of species----------------------------

                                                   Log       Log         Log 
   Species                 Molality    Activity  Molality  Activity     Gamma

   H+                    1.311e-007  1.000e-007    -6.882    -7.000    -0.118
   OH-                   1.062e-007  6.662e-008    -6.974    -7.176    -0.202
   H2O                   5.551e+001  9.813e-001     1.744    -0.008     0.000
Cl              5.497e-001
   Cl-                   5.497e-001  3.515e-001    -0.260    -0.454    -0.194
H(0)            1.312e-025
   H2                    6.562e-026  7.447e-026   -25.183   -25.128     0.055
Na              5.497e-001
   Na+                   5.497e-001  3.903e-001    -0.260    -0.409    -0.149
   NaOH                  2.230e-008  2.530e-008    -7.652    -7.597     0.055
O(0)            0.000e+000
   O2                    0.000e+000  0.000e+000   -43.836   -43.782     0.055

------------------------------Saturation indices-------------------------------

	Phase               SI log IAP  log KT

	H2(g)           -22.00  -25.13   -3.13  H2
	H2O(g)           -1.65   -0.01    1.64  H2O
	Halite           -2.43   -0.86    1.57  NaCl
	O2(g)           -40.93  -43.78   -2.85  O2

Initial solution 19.	

-----------------------------Solution composition------------------------------

	Elements           Molality       Moles

	Cl               6.445e-001  6.445e-001  Charge balance
	Na               6.445e-001  6.445e-001

----------------------------Description of solution----------------------------

                                       pH  =   7.000    
                                       pe  =   4.000    
       Specific Conductance (uS/cm, 25 oC) = 58288
                          Density (g/cm3)  =   1.02421
                        Activity of water  =   0.978
                           Ionic strength  =  6.445e-001
                       Mass of water (kg)  =  1.000e+000
                 Total alkalinity (eq/kg)  =  1.482e-009
                    Total carbon (mol/kg)  =  0.000e+000
                       Total CO2 (mol/kg)  =  0.000e+000
                      Temperature (deg C)  =  20.000
                  Electrical balance (eq)  = -1.006e-014
 Percent error, 100*(Cat-|An|)/(Cat+|An|)  =  -0.00
                               Iterations  =   8
                                  Total H  = 1.110124e+002
                                  Total O  = 5.550622e+001

----------------------------Distribution of species----------------------------

                                                   Log       Log         Log 
   Species                 Molality    Activity  Molality  Activity     Gamma

   H+                    1.320e-007  1.000e-007    -6.880    -7.000    -0.120
   OH-                   1.080e-007  6.640e-008    -6.967    -7.178    -0.211
   H2O                   5.551e+001  9.781e-001     1.744    -0.010     0.000
Cl              6.445e-001
   Cl-                   6.445e-001  4.053e-001    -0.191    -0.392    -0.202
H(0)            1.284e-025
   H2                    6.420e-026  7.447e-026   -25.192   -25.128     0.064
Na              6.445e-001
   Na+                   6.445e-001  4.570e-001    -0.191    -0.340    -0.149
   NaOH                  2.546e-008  2.953e-008    -7.594    -7.530     0.064
O(0)            0.000e+000
   O2                    0.000e+000  0.000e+000   -43.849   -43.784     0.064

------------------------------Saturation indices-------------------------------

	Phase               SI log IAP  log KT

	H2(g)           -22.00  -25.13   -3.13  H2
	H2O(g)           -1.65   -0.01    1.64  H2O
	Halite           -2.30   -0.73    1.57  NaCl
	O2(g)           -40.93  -43.78   -2.85  O2

Initial solution 20.	

-----------------------------Solution composition------------------------------

	Elements           Molality       Moles

	Cl               7.214e-001  7.214e-001  Charge balance
	Na               7.214e-001  7.214e-001

----------------------------Description of solution----------------------------

                                       pH  =   7.000    
                                       pe  =   4.000    
       Specific Conductance (uS/cm, 25 oC) = 63650
                          Density (g/cm3)  =   1.02720
                        Activity of water  =   0.975
                           Ionic strength  =  7.214e-001
                       Mass of water (kg)  =  1.000e+000
                 Total alkalinity (eq/kg)  =  4.619e-009
                    Total carbon (mol/kg)  =  0.000e+000
                       Total CO2 (mol/kg)  =  0.000e+000
                      Temperature (deg C)  =  20.000
                  Electrical balance (eq)  = -1.207e-011
 Percent error, 100*(Cat-|An|)/(Cat+|An|)  =  -0.00
                               Iterations  =   8
                                  Total H  = 1.110124e+002
                                  Total O  = 5.550622e+001

----------------------------Distribution of species----------------------------

                                                   Log       Log         Log 
   Species                 Molality    Activity  Molality  Activity     Gamma

   H+                    1.326e-007  1.000e-007    -6.878    -7.000    -0.122
   OH-                   1.092e-007  6.623e-008    -6.962    -7.179    -0.217
   H2O                   5.551e+001  9.755e-001     1.744    -0.011     0.000
Cl              7.214e-001
   Cl-                   7.214e-001  4.484e-001    -0.142    -0.348    -0.207
H(0)            1.261e-025
   H2                    6.307e-026  7.447e-026   -25.200   -25.128     0.072
Na              7.214e-001
   Na+                   7.214e-001  5.119e-001    -0.142    -0.291    -0.149
   NaOH                  2.794e-008  3.299e-008    -7.554    -7.482     0.072
O(0)            0.000e+000
   O2                    0.000e+000  0.000e+000   -43.859   -43.787     0.072

------------------------------Saturation indices-------------------------------

	Phase               SI log IAP  log KT

	H2(g)           -22.00  -25.13   -3.13  H2
	H2O(g)           -1.65   -0.01    1.64  H2O
	Halite           -2.21   -0.64    1.57  NaCl
	O2(g)           -40.93  -43.79   -2.85  O2

Initial solution 21.	

-----------------------------Solution composition------------------------------

	Elements           Molality       Moles

	Cl               9.166e-001  9.166e-001  Charge balance
	Na               9.166e-001  9.166e-001

----------------------------Description of solution----------------------------

                                       pH  =   7.000    
                                       pe  =   4.000    
       Specific Conductance (uS/cm, 25 oC) = 76533
                          Density (g/cm3)  =   1.03471
                        Activity of water  =   0.969
                           Ionic strength  =  9.166e-001
                       Mass of water (kg)  =  1.000e+000
                 Total alkalinity (eq/kg)  =  1.199e-008
                    Total carbon (mol/kg)  =  0.000e+000
                       Total CO2 (mol/kg)  =  0.000e+000
                      Temperature (deg C)  =  20.000
                  Electrical balance (eq)  = -1.219e-012
 Percent error, 100*(Cat-|An|)/(Cat+|An|)  =  -0.00
                               Iterations  =   9
                                  Total H  = 1.110124e+002
                                  Total O  = 5.550622e+001

----------------------------Distribution of species----------------------------

                                                   Log       Log         Log 
   Species                 Molality    Activity  Molality  Activity     Gamma

   H+                    1.338e-007  1.000e-007    -6.873    -7.000    -0.127
   OH-                   1.118e-007  6.578e-008    -6.951    -7.182    -0.231
   H2O                   5.551e+001  9.688e-001     1.744    -0.014     0.000
Cl              9.166e-001
   Cl-                   9.166e-001  5.564e-001    -0.038    -0.255    -0.217
H(0)            1.206e-025
   H2                    6.030e-026  7.447e-026   -25.220   -25.128     0.092
Na              9.166e-001
   Na+                   9.166e-001  6.552e-001    -0.038    -0.184    -0.146
   NaOH                  3.396e-008  4.194e-008    -7.469    -7.377     0.092
O(0)            0.000e+000
   O2                    0.000e+000  0.000e+000   -43.884   -43.793     0.092

------------------------------Saturation indices-------------------------------

	Phase               SI log IAP  log KT

	H2(g)           -22.00  -25.13   -3.13  H2
	H2O(g)           -1.66   -0.01    1.64  H2O
	Halite           -2.01   -0.44    1.57  NaCl
	O2(g)           -40.94  -43.79   -2.85  O2

Initial solution 22.	

-----------------------------Solution composition------------------------------

	Elements           Molality       Moles

	Cl               1.097e+000  1.097e+000  Charge balance
	Na               1.097e+000  1.097e+000

----------------------------Description of solution----------------------------

                                       pH  =   7.000    
                                       pe  =   4.000    
       Specific Conductance (uS/cm, 25 oC) = 87744
                          Density (g/cm3)  =   1.04154
                        Activity of water  =   0.963
                           Ionic strength  =  1.097e+000
                       Mass of water (kg)  =  1.000e+000
                 Total alkalinity (eq/kg)  =  1.815e-008
                    Total carbon (mol/kg)  =  0.000e+000
                       Total CO2 (mol/kg)  =  0.000e+000
                      Temperature (deg C)  =  20.000
                  Electrical balance (eq)  = -1.569e-012
 Percent error, 100*(Cat-|An|)/(Cat+|An|)  =  -0.00
                               Iterations  =   9
                                  Total H  = 1.110124e+002
                                  Total O  = 5.550622e+001

----------------------------Distribution of species----------------------------

                                                   Log       Log         Log 
   Species                 Molality    Activity  Molality  Activity     Gamma

   H+                    1.347e-007  1.000e-007    -6.871    -7.000    -0.129
   OH-                   1.137e-007  6.536e-008    -6.944    -7.185    -0.240
   H2O                   5.551e+001  9.627e-001     1.744    -0.017     0.000
Cl              1.097e+000
   Cl-                   1.097e+000  6.549e-001     0.040    -0.184    -0.224
H(0)            1.157e-025
   H2                    5.785e-026  7.447e-026   -25.238   -25.128     0.110
Na              1.097e+000
   Na+                   1.097e+000  7.931e-001     0.040    -0.101    -0.141
   NaOH                  3.919e-008  5.045e-008    -7.407    -7.297     0.110
O(0)            0.000e+000
   O2                    0.000e+000  0.000e+000   -43.908   -43.798     0.110

------------------------------Saturation indices-------------------------------

	Phase               SI log IAP  log KT

	H2(g)           -22.00  -25.13   -3.13  H2
	H2O(g)           -1.66   -0.02    1.64  H2O
	Halite           -1.86   -0.28    1.57  NaCl
	O2(g)           -40.94  -43.80   -2.85  O2

Initial solution 23.	

-----------------------------Solution composition------------------------------

	Elements           Molality       Moles

	Cl               1.467e+000  1.467e+000  Charge balance
	Na               1.467e+000  1.467e+000

----------------------------Description of solution----------------------------

                                       pH  =   7.000    
                                       pe  =   4.000    
       Specific Conductance (uS/cm, 25 oC) = 109720
                          Density (g/cm3)  =   1.05528
                        Activity of water  =   0.950
                           Ionic strength  =  1.467e+000
                       Mass of water (kg)  =  1.000e+000
                 Total alkalinity (eq/kg)  =  2.934e-008
                    Total carbon (mol/kg)  =  0.000e+000
                       Total CO2 (mol/kg)  =  0.000e+000
                      Temperature (deg C)  =  20.000
                  Electrical balance (eq)  = -6.623e-015
 Percent error, 100*(Cat-|An|)/(Cat+|An|)  =  -0.00
                               Iterations  =   9
                                  Total H  = 1.110124e+002
                                  Total O  = 5.550622e+001

----------------------------Distribution of species----------------------------

                                                   Log       Log         Log 
   Species                 Molality    Activity  Molality  Activity     Gamma

   H+                    1.361e-007  1.000e-007    -6.866    -7.000    -0.134
   OH-                   1.163e-007  6.451e-008    -6.934    -7.190    -0.256
   H2O                   5.551e+001  9.501e-001     1.744    -0.022     0.000
Cl              1.467e+000
   Cl-                   1.467e+000  8.557e-001     0.166    -0.068    -0.234
H(0)            1.062e-025
   H2                    5.312e-026  7.447e-026   -25.275   -25.128     0.147
Na              1.467e+000
   Na+                   1.467e+000  1.096e+000     0.166     0.040    -0.126
   NaOH                  4.910e-008  6.883e-008    -7.309    -7.162     0.147
O(0)            0.000e+000
   O2                    0.000e+000  0.000e+000   -43.956   -43.810     0.147

------------------------------Saturation indices-------------------------------

	Phase               SI log IAP  log KT

	H2(g)           -22.00  -25.13   -3.13  H2
	H2O(g)           -1.66   -0.02    1.64  H2O
	Halite           -1.60   -0.03    1.57  NaCl
	O2(g)           -40.96  -43.81   -2.85  O2

Initial solution 24.	

-----------------------------Solution composition------------------------------

	Elements           Molality       Moles

	Cl               1.811e+000  1.811e+000  Charge balance
	Na               1.811e+000  1.811e+000

----------------------------Description of solution----------------------------

                                       pH  =   7.000    
                                       pe  =   4.000    
       Specific Conductance (uS/cm, 25 oC) = 129895
                          Density (g/cm3)  =   1.06769
                        Activity of water  =   0.938
                           Ionic strength  =  1.811e+000
                       Mass of water (kg)  =  1.000e+000
                 Total alkalinity (eq/kg)  =  3.828e-008
                    Total carbon (mol/kg)  =  0.000e+000
                       Total CO2 (mol/kg)  =  0.000e+000
                      Temperature (deg C)  =  20.000
                  Electrical balance (eq)  = -1.419e-008
 Percent error, 100*(Cat-|An|)/(Cat+|An|)  =  -0.00
                               Iterations  =   8
                                  Total H  = 1.110124e+002
                                  Total O  = 5.550622e+001

----------------------------Distribution of species----------------------------

                                                   Log       Log         Log 
   Species                 Molality    Activity  Molality  Activity     Gamma

   H+                    1.370e-007  1.000e-007    -6.863    -7.000    -0.137
   OH-                   1.179e-007  6.371e-008    -6.928    -7.196    -0.267
   H2O                   5.551e+001  9.384e-001     1.744    -0.028     0.000
Cl              1.811e+000
   Cl-                   1.811e+000  1.042e+000     0.258     0.018    -0.240
H(0)            9.816e-026
   H2                    4.908e-026  7.447e-026   -25.309   -25.128     0.181
Na              1.811e+000
   Na+                   1.811e+000  1.405e+000     0.258     0.148    -0.110
   NaOH                  5.742e-008  8.712e-008    -7.241    -7.060     0.181
O(0)            0.000e+000
   O2                    0.000e+000  0.000e+000   -44.001   -43.820     0.181

------------------------------Saturation indices-------------------------------

	Phase               SI log IAP  log KT

	H2(g)           -22.00  -25.13   -3.13  H2
	H2O(g)           -1.67   -0.03    1.64  H2O
	Halite           -1.41    0.17    1.57  NaCl
	O2(g)           -40.97  -43.82   -2.85  O2

------------------
End of simulation.
------------------

------------------------------------
Reading input data for simulation 3.
------------------------------------

	SOLUTION_SPREAD
	 temp 20
	 units mol/L
	Ca	Cl	HB_EC
	4.50E-02	 1 charge	8100
	9.10E-02	 1 charge	15700
	1.37E-01	 1 charge	22700
	1.83E-01	 1 charge	29400
	2.30E-01	 1 charge	36100
	2.77E-01	 1 charge	42600
	3.24E-01	 1 charge	48900
	3.72E-01	 1 charge	55100
	4.69E-01	 1 charge	67000
	5.67E-01	 1 charge	78300
	6.67E-01	 1 charge	88700
	8.20E-01	 1 charge	103000
	END
WARNING: Could not find element in database, HB_EC.
	Concentration is set to zero.
-------------------------------------------
Beginning of initial solution calculations.
-------------------------------------------

Initial solution 25.	

-----------------------------Solution composition------------------------------

	Elements           Molality       Moles

	Ca               4.674e-002  4.674e-002
	Cl               9.348e-002  9.348e-002  Charge balance

----------------------------Description of solution----------------------------

                                       pH  =   7.000    
                                       pe  =   4.000    
       Specific Conductance (uS/cm, 25 oC) = 9556
                          Density (g/cm3)  =   1.00250
                        Activity of water  =   0.998
                           Ionic strength  =  1.402e-001
                       Mass of water (kg)  =  1.000e+000
                 Total alkalinity (eq/kg)  =  5.098e-009
                    Total carbon (mol/kg)  =  0.000e+000
                       Total CO2 (mol/kg)  =  0.000e+000
                      Temperature (deg C)  =  20.000
                  Electrical balance (eq)  = -4.667e-012
 Percent error, 100*(Cat-|An|)/(Cat+|An|)  =  -0.00
                               Iterations  =   5
                                  Total H  = 1.110124e+002
                                  Total O  = 5.550622e+001

----------------------------Distribution of species----------------------------

                                                   Log       Log         Log 
   Species                 Molality    Activity  Molality  Activity     Gamma

   H+                    1.230e-007  1.000e-007    -6.910    -7.000    -0.090
   OH-                   9.186e-008  6.773e-008    -7.037    -7.169    -0.132
   H2O                   5.551e+001  9.976e-001     1.744    -0.001     0.000
Ca              4.674e-002
   Ca+2                  4.674e-002  1.674e-002    -1.330    -1.776    -0.446
   CaOH+                 3.624e-008  2.772e-008    -7.441    -7.557    -0.116
Cl              9.348e-002
   Cl-                   9.348e-002  6.926e-002    -1.029    -1.160    -0.130
H(0)            1.442e-025
   H2                    7.211e-026  7.447e-026   -25.142   -25.128     0.014
O(0)            0.000e+000
   O2                    0.000e+000  0.000e+000   -43.781   -43.767     0.014

------------------------------Saturation indices-------------------------------

	Phase               SI log IAP  log KT

	H2(g)           -22.00  -25.13   -3.13  H2
	H2O(g)           -1.64   -0.00    1.64  H2O
	O2(g)           -40.91  -43.77   -2.85  O2

Initial solution 26.	

-----------------------------Solution composition------------------------------

	Elements           Molality       Moles

	Ca               9.470e-002  9.470e-002
	Cl               1.894e-001  1.894e-001  Charge balance

----------------------------Description of solution----------------------------

                                       pH  =   7.000    
                                       pe  =   4.000    
       Specific Conductance (uS/cm, 25 oC) = 18266
                          Density (g/cm3)  =   1.00683
                        Activity of water  =   0.995
                           Ionic strength  =  2.841e-001
                       Mass of water (kg)  =  1.000e+000
                 Total alkalinity (eq/kg)  =  3.492e-008
                    Total carbon (mol/kg)  =  0.000e+000
                       Total CO2 (mol/kg)  =  0.000e+000
                      Temperature (deg C)  =  20.000
                  Electrical balance (eq)  = -2.152e-012
 Percent error, 100*(Cat-|An|)/(Cat+|An|)  =  -0.00
                               Iterations  =   5
                                  Total H  = 1.110124e+002
                                  Total O  = 5.550622e+001

----------------------------Distribution of species----------------------------

                                                   Log       Log         Log 
   Species                 Molality    Activity  Molality  Activity     Gamma

   H+                    1.273e-007  1.000e-007    -6.895    -7.000    -0.105
   OH-                   9.927e-008  6.756e-008    -7.003    -7.170    -0.167
   H2O                   5.551e+001  9.952e-001     1.744    -0.002     0.000
Ca              9.470e-002
   Ca+2                  9.470e-002  2.807e-002    -1.024    -1.552    -0.528
   CaOH+                 6.291e-008  4.636e-008    -7.201    -7.334    -0.133
Cl              1.894e-001
   Cl-                   1.894e-001  1.302e-001    -0.723    -0.885    -0.163
H(0)            1.395e-025
   H2                    6.976e-026  7.447e-026   -25.156   -25.128     0.028
O(0)            0.000e+000
   O2                    0.000e+000  0.000e+000   -43.798   -43.769     0.028

------------------------------Saturation indices-------------------------------

	Phase               SI log IAP  log KT

	H2(g)           -22.00  -25.13   -3.13  H2
	H2O(g)           -1.64   -0.00    1.64  H2O
	O2(g)           -40.91  -43.77   -2.85  O2

Initial solution 27.	

-----------------------------Solution composition------------------------------

	Elements           Molality       Moles

	Ca               1.428e-001  1.428e-001
	Cl               2.857e-001  2.857e-001  Charge balance

----------------------------Description of solution----------------------------

                                       pH  =   7.000    
                                       pe  =   4.000    
       Specific Conductance (uS/cm, 25 oC) = 26318
                          Density (g/cm3)  =   1.01115
                        Activity of water  =   0.993
                           Ionic strength  =  4.285e-001
                       Mass of water (kg)  =  1.000e+000
                 Total alkalinity (eq/kg)  =  6.134e-008
                    Total carbon (mol/kg)  =  0.000e+000
                       Total CO2 (mol/kg)  =  0.000e+000
                      Temperature (deg C)  =  20.000
                  Electrical balance (eq)  = -1.007e-014
 Percent error, 100*(Cat-|An|)/(Cat+|An|)  =  -0.00
                               Iterations  =   6
                                  Total H  = 1.110124e+002
                                  Total O  = 5.550622e+001

----------------------------Distribution of species----------------------------

                                                   Log       Log         Log 
   Species                 Molality    Activity  Molality  Activity     Gamma

   H+                    1.297e-007  1.000e-007    -6.887    -7.000    -0.113
   OH-                   1.041e-007  6.740e-008    -6.982    -7.171    -0.189
   H2O                   5.551e+001  9.927e-001     1.744    -0.003     0.000
Ca              1.428e-001
   Ca+2                  1.428e-001  3.866e-002    -0.845    -1.413    -0.568
   CaOH+                 8.689e-008  6.369e-008    -7.061    -7.196    -0.135
Cl              2.857e-001
   Cl-                   2.857e-001  1.877e-001    -0.544    -0.727    -0.182
H(0)            1.349e-025
   H2                    6.747e-026  7.447e-026   -25.171   -25.128     0.043
O(0)            0.000e+000
   O2                    0.000e+000  0.000e+000   -43.814   -43.771     0.043

------------------------------Saturation indices-------------------------------

	Phase               SI log IAP  log KT

	H2(g)           -22.00  -25.13   -3.13  H2
	H2O(g)           -1.64   -0.00    1.64  H2O
	O2(g)           -40.92  -43.77   -2.85  O2

Initial solution 28.	

-----------------------------Solution composition------------------------------

	Elements           Molality       Moles

	Ca               1.912e-001  1.912e-001
	Cl               3.824e-001  3.824e-001  Charge balance

----------------------------Description of solution----------------------------

                                       pH  =   7.000    
                                       pe  =   4.000    
       Specific Conductance (uS/cm, 25 oC) = 33525
                          Density (g/cm3)  =   1.01545
                        Activity of water  =   0.990
                           Ionic strength  =  5.735e-001
                       Mass of water (kg)  =  1.000e+000
                 Total alkalinity (eq/kg)  =  8.594e-008
                    Total carbon (mol/kg)  =  0.000e+000
                       Total CO2 (mol/kg)  =  0.000e+000
                      Temperature (deg C)  =  20.000
                  Electrical balance (eq)  = -4.123e-010
 Percent error, 100*(Cat-|An|)/(Cat+|An|)  =  -0.00
                               Iterations  =   6
                                  Total H  = 1.110124e+002
                                  Total O  = 5.550622e+001

----------------------------Distribution of species----------------------------

                                                   Log       Log         Log 
   Species                 Molality    Activity  Molality  Activity     Gamma

   H+                    1.313e-007  1.000e-007    -6.882    -7.000    -0.118
   OH-                   1.077e-007  6.723e-008    -6.968    -7.172    -0.205
   H2O                   5.551e+001  9.902e-001     1.744    -0.004     0.000
Ca              1.912e-001
   Ca+2                  1.912e-001  4.932e-002    -0.719    -1.307    -0.588
   CaOH+                 1.095e-007  8.106e-008    -6.960    -7.091    -0.131
Cl              3.824e-001
   Cl-                   3.824e-001  2.434e-001    -0.418    -0.614    -0.196
H(0)            1.305e-025
   H2                    6.526e-026  7.447e-026   -25.185   -25.128     0.057
O(0)            0.000e+000
   O2                    0.000e+000  0.000e+000   -43.831   -43.774     0.057

------------------------------Saturation indices-------------------------------

	Phase               SI log IAP  log KT

	H2(g)           -22.00  -25.13   -3.13  H2
	H2O(g)           -1.65   -0.00    1.64  H2O
	O2(g)           -40.92  -43.77   -2.85  O2

Initial solution 29.	

-----------------------------Solution composition------------------------------

	Elements           Molality       Moles

	Ca               2.408e-001  2.408e-001
	Cl               4.815e-001  4.815e-001  Charge balance

----------------------------Description of solution----------------------------

                                       pH  =   7.000    
                                       pe  =   4.000    
       Specific Conductance (uS/cm, 25 oC) = 40468
                          Density (g/cm3)  =   1.01984
                        Activity of water  =   0.988
                           Ionic strength  =  7.223e-001
                       Mass of water (kg)  =  1.000e+000
                 Total alkalinity (eq/kg)  =  1.099e-007
                    Total carbon (mol/kg)  =  0.000e+000
                       Total CO2 (mol/kg)  =  0.000e+000
                      Temperature (deg C)  =  20.000
                  Electrical balance (eq)  = -8.958e-014
 Percent error, 100*(Cat-|An|)/(Cat+|An|)  =  -0.00
                               Iterations  =   7
                                  Total H  = 1.110124e+002
                                  Total O  = 5.550622e+001

----------------------------Distribution of species----------------------------

                                                   Log       Log         Log 
   Species                 Molality    Activity  Molality  Activity     Gamma

   H+                    1.326e-007  1.000e-007    -6.878    -7.000    -0.122
   OH-                   1.106e-007  6.706e-008    -6.956    -7.174    -0.217
   H2O                   5.551e+001  9.877e-001     1.744    -0.005     0.000
Ca              2.408e-001
   Ca+2                  2.408e-001  6.065e-002    -0.618    -1.217    -0.599
   CaOH+                 1.318e-007  9.942e-008    -6.880    -7.003    -0.123
Cl              4.815e-001
   Cl-                   4.815e-001  2.992e-001    -0.317    -0.524    -0.207
H(0)            1.261e-025
   H2                    6.306e-026  7.447e-026   -25.200   -25.128     0.072
O(0)            0.000e+000
   O2                    0.000e+000  0.000e+000   -43.848   -43.776     0.072

------------------------------Saturation indices-------------------------------

	Phase               SI log IAP  log KT

	H2(g)           -22.00  -25.13   -3.13  H2
	H2O(g)           -1.65   -0.01    1.64  H2O
	O2(g)           -40.92  -43.78   -2.85  O2

Initial solution 30.	

-----------------------------Solution composition------------------------------

	Elements           Molality       Moles

	Ca               2.905e-001  2.905e-001
	Cl               5.811e-001  5.811e-001  Charge balance

----------------------------Description of solution----------------------------

                                       pH  =   7.000    
                                       pe  =   4.000    
       Specific Conductance (uS/cm, 25 oC) = 46043
                          Density (g/cm3)  =   1.02423
                        Activity of water  =   0.985
                           Ionic strength  =  8.716e-001
                       Mass of water (kg)  =  1.000e+000
                 Total alkalinity (eq/kg)  =  1.331e-007
                    Total carbon (mol/kg)  =  0.000e+000
                       Total CO2 (mol/kg)  =  0.000e+000
                      Temperature (deg C)  =  20.000
                  Electrical balance (eq)  = -4.625e-010
 Percent error, 100*(Cat-|An|)/(Cat+|An|)  =  -0.00
                               Iterations  =   7
                                  Total H  = 1.110124e+002
                                  Total O  = 5.550622e+001

----------------------------Distribution of species----------------------------

                                                   Log       Log         Log 
   Species                 Molality    Activity  Molality  Activity     Gamma

   H+                    1.336e-007  1.000e-007    -6.874    -7.000    -0.126
   OH-                   1.130e-007  6.689e-008    -6.947    -7.175    -0.228
   H2O                   5.551e+001  9.852e-001     1.744    -0.006     0.000
Ca              2.905e-001
   Ca+2                  2.905e-001  7.263e-002    -0.537    -1.139    -0.602
   CaOH+                 1.536e-007  1.187e-007    -6.814    -6.925    -0.112
Cl              5.811e-001
   Cl-                   5.811e-001  3.544e-001    -0.236    -0.450    -0.215
H(0)            1.219e-025
   H2                    6.093e-026  7.447e-026   -25.215   -25.128     0.087
O(0)            0.000e+000
   O2                    0.000e+000  0.000e+000   -43.865   -43.778     0.087

------------------------------Saturation indices-------------------------------

	Phase               SI log IAP  log KT

	H2(g)           -22.00  -25.13   -3.13  H2
	H2O(g)           -1.65   -0.01    1.64  H2O
	O2(g)           -40.92  -43.78   -2.85  O2

Initial solution 31.	

-----------------------------Solution composition------------------------------

	Elements           Molality       Moles

	Ca               3.405e-001  3.405e-001
	Cl               6.810e-001  6.810e-001  Charge balance

----------------------------Description of solution----------------------------

                                       pH  =   7.000    
                                       pe  =   4.000    
       Specific Conductance (uS/cm, 25 oC) = 51199
                          Density (g/cm3)  =   1.02862
                        Activity of water  =   0.983
                           Ionic strength  =  1.021e+000
                       Mass of water (kg)  =  1.000e+000
                 Total alkalinity (eq/kg)  =  1.556e-007
                    Total carbon (mol/kg)  =  0.000e+000
                       Total CO2 (mol/kg)  =  0.000e+000
                      Temperature (deg C)  =  20.000
                  Electrical balance (eq)  = -2.448e-014
 Percent error, 100*(Cat-|An|)/(Cat+|An|)  =  -0.00
                               Iterations  =   8
                                  Total H  = 1.110124e+002
                                  Total O  = 5.550622e+001

----------------------------Distribution of species----------------------------

                                                   Log       Log         Log 
   Species                 Molality    Activity  Molality  Activity     Gamma

   H+                    1.344e-007  1.000e-007    -6.872    -7.000    -0.128
   OH-                   1.150e-007  6.671e-008    -6.939    -7.176    -0.236
[...]
                       Total CO2 (mol/kg)  =  0.000e+000
                      Temperature (deg C)  =  20.000
                  Electrical balance (eq)  =  3.212e-008
 Percent error, 100*(Cat-|An|)/(Cat+|An|)  =   0.00
                               Iterations  =  15
                                  Total H  = 1.110124e+002
                                  Total O  = 5.664742e+001

----------------------------Distribution of species----------------------------

                                                   Log       Log         Log 
   Species                 Molality    Activity  Molality  Activity     Gamma

   OH-                   1.664e-007  1.020e-007    -6.779    -6.991    -0.213
   H+                    8.720e-008  6.601e-008    -7.059    -7.180    -0.121
   H2O                   5.551e+001  9.919e-001     1.744    -0.004     0.000
H(0)            0.000e+000
   H2                    0.000e+000  0.000e+000   -43.685   -43.619     0.066
La              1.268e-001
   La+3                  9.352e-002  7.634e-003    -1.029    -2.117    -1.088
   LaNO3+2               3.328e-002  5.956e-003    -1.478    -2.225    -0.747
N(-3)           0.000e+000
   NH4+                  0.000e+000  0.000e+000   -55.340   -55.586    -0.247
   NH3                   0.000e+000  0.000e+000   -57.872   -57.806     0.066
N(0)            1.115e-007
   N2                    5.573e-008  6.489e-008    -7.254    -7.188     0.066
N(3)            1.480e-012
   NO2-                  1.480e-012  8.747e-013   -11.830   -12.058    -0.228
N(5)            3.804e-001
   NO3-                  3.471e-001  2.052e-001    -0.460    -0.688    -0.228
   LaNO3+2               3.328e-002  5.956e-003    -1.478    -2.225    -0.747
O(0)            2.784e-007
   O2                    1.392e-007  1.621e-007    -6.856    -6.790     0.066

------------------------------Saturation indices-------------------------------

	Phase               SI log IAP  log KT

	H2(g)           -40.49  -43.62   -3.13  H2
	H2O(g)           -1.65   -0.00    1.64  H2O
	N2(g)            -3.94   -7.19   -3.24  N2
	NH3(g)          -59.68  -57.81    1.87  NH3
	O2(g)            -3.94   -6.79   -2.85  O2

Reaction step 5.

Using solution 1.	
Using reaction 1.	

Reaction 1.	Irreversible reaction defined in simulation 6.

	 1.600e-001 moles of the following reaction have been added:

	                 Relative
	Reactant            moles

	La(NO3)3             1.00000

	                 Relative
	Element             moles
	La                   1.00000
	N                    3.00000
	O                    9.00000

-----------------------------Solution composition------------------------------

	Elements           Molality       Moles

	La               1.600e-001  1.600e-001
	N                4.800e-001  4.800e-001

----------------------------Description of solution----------------------------

                                       pH  =   7.187      Charge balance
                                       pe  =  13.070      Adjusted to redox equilibrium
       Specific Conductance (uS/cm, 25 oC) = 30394
                          Density (g/cm3)  =   1.01191
                        Activity of water  =   0.990
                           Ionic strength  =  8.152e-001
                       Mass of water (kg)  =  1.000e+000
                 Total alkalinity (eq/kg)  =  8.643e-008
                    Total carbon (mol/kg)  =  0.000e+000
                       Total CO2 (mol/kg)  =  0.000e+000
                      Temperature (deg C)  =  20.000
                  Electrical balance (eq)  =  3.212e-008
 Percent error, 100*(Cat-|An|)/(Cat+|An|)  =   0.00
                               Iterations  =  15
                                  Total H  = 1.110124e+002
                                  Total O  = 5.694622e+001

----------------------------Distribution of species----------------------------

                                                   Log       Log         Log 
   Species                 Molality    Activity  Molality  Activity     Gamma

   OH-                   1.731e-007  1.033e-007    -6.762    -6.986    -0.224
   H+                    8.666e-008  6.505e-008    -7.062    -7.187    -0.125
   H2O                   5.551e+001  9.899e-001     1.744    -0.004     0.000
H(0)            0.000e+000
   H2                    0.000e+000  0.000e+000   -43.723   -43.641     0.082
La              1.600e-001
   La+3                  1.117e-001  8.458e-003    -0.952    -2.073    -1.121
   LaNO3+2               4.825e-002  7.958e-003    -1.317    -2.099    -0.783
N(-3)           0.000e+000
   NH4+                  0.000e+000  0.000e+000   -55.342   -55.604    -0.262
   NH3                   0.000e+000  0.000e+000   -57.899   -57.818     0.082
N(0)            1.191e-007
   N2                    5.953e-008  7.182e-008    -7.225    -7.144     0.082
N(3)            1.752e-012
   NO2-                  1.752e-012  1.004e-012   -11.756   -11.998    -0.242
N(5)            4.800e-001
   NO3-                  4.317e-001  2.475e-001    -0.365    -0.606    -0.242
   LaNO3+2               4.825e-002  7.958e-003    -1.317    -2.099    -0.783
O(0)            2.965e-007
   O2                    1.482e-007  1.788e-007    -6.829    -6.748     0.082

------------------------------Saturation indices-------------------------------

	Phase               SI log IAP  log KT

	H2(g)           -40.51  -43.64   -3.13  H2
	H2O(g)           -1.65   -0.00    1.64  H2O
	N2(g)            -3.90   -7.14   -3.24  N2
	NH3(g)          -59.69  -57.82    1.87  NH3
	O2(g)            -3.89   -6.75   -2.85  O2

Reaction step 6.

Using solution 1.	
Using reaction 1.	

Reaction 1.	Irreversible reaction defined in simulation 6.

	 1.936e-001 moles of the following reaction have been added:

	                 Relative
	Reactant            moles

	La(NO3)3             1.00000

	                 Relative
	Element             moles
	La                   1.00000
	N                    3.00000
	O                    9.00000

-----------------------------Solution composition------------------------------

	Elements           Molality       Moles

	La               1.936e-001  1.936e-001
	N                5.808e-001  5.808e-001

----------------------------Description of solution----------------------------

                                       pH  =   7.191      Charge balance
                                       pe  =  13.075      Adjusted to redox equilibrium
       Specific Conductance (uS/cm, 25 oC) = 34191
                          Density (g/cm3)  =   1.01461
                        Activity of water  =   0.988
                           Ionic strength  =  9.664e-001
                       Mass of water (kg)  =  1.000e+000
                 Total alkalinity (eq/kg)  =  9.189e-008
                    Total carbon (mol/kg)  =  0.000e+000
                       Total CO2 (mol/kg)  =  0.000e+000
                      Temperature (deg C)  =  20.000
                  Electrical balance (eq)  =  3.210e-008
 Percent error, 100*(Cat-|An|)/(Cat+|An|)  =   0.00
                               Iterations  =  15
                                  Total H  = 1.110124e+002
                                  Total O  = 5.724862e+001

----------------------------Distribution of species----------------------------

                                                   Log       Log         Log 
   Species                 Molality    Activity  Molality  Activity     Gamma

   OH-                   1.783e-007  1.041e-007    -6.749    -6.982    -0.233
   H+                    8.637e-008  6.441e-008    -7.064    -7.191    -0.127
   H2O                   5.551e+001  9.879e-001     1.744    -0.005     0.000
H(0)            0.000e+000
   H2                    0.000e+000  0.000e+000   -43.756   -43.659     0.097
La              1.936e-001
   La+3                  1.285e-001  9.172e-003    -0.891    -2.038    -1.147
   LaNO3+2               6.507e-002  1.005e-002    -1.187    -1.998    -0.811
N(-3)           0.000e+000
   NH4+                  0.000e+000  0.000e+000   -55.342   -55.617    -0.275
   NH3                   0.000e+000  0.000e+000   -57.923   -57.826     0.097
N(0)            1.255e-007
   N2                    6.273e-008  7.836e-008    -7.203    -7.106     0.097
N(3)            2.010e-012
   NO2-                  2.010e-012  1.124e-012   -11.697   -11.949    -0.253
N(5)            5.808e-001
   NO3-                  5.157e-001  2.883e-001    -0.288    -0.540    -0.253
   LaNO3+2               6.507e-002  1.005e-002    -1.187    -1.998    -0.811
O(0)            3.102e-007
   O2                    1.551e-007  1.938e-007    -6.809    -6.713     0.097

------------------------------Saturation indices-------------------------------

	Phase               SI log IAP  log KT

	H2(g)           -40.53  -43.66   -3.13  H2
	H2O(g)           -1.65   -0.01    1.64  H2O
	N2(g)            -3.86   -7.11   -3.24  N2
	NH3(g)          -59.70  -57.83    1.87  NH3
	O2(g)            -3.86   -6.71   -2.85  O2

Reaction step 7.

Using solution 1.	
Using reaction 1.	

Reaction 1.	Irreversible reaction defined in simulation 6.

	 2.277e-001 moles of the following reaction have been added:

	                 Relative
	Reactant            moles

	La(NO3)3             1.00000

	                 Relative
	Element             moles
	La                   1.00000
	N                    3.00000
	O                    9.00000

-----------------------------Solution composition------------------------------

	Elements           Molality       Moles

	La               2.277e-001  2.277e-001
	N                6.831e-001  6.831e-001

----------------------------Description of solution----------------------------

                                       pH  =   7.194      Charge balance
                                       pe  =  13.080      Adjusted to redox equilibrium
       Specific Conductance (uS/cm, 25 oC) = 37392
                          Density (g/cm3)  =   1.01732
                        Activity of water  =   0.986
                           Ionic strength  =  1.115e+000
                       Mass of water (kg)  =  1.000e+000
                 Total alkalinity (eq/kg)  =  9.599e-008
                    Total carbon (mol/kg)  =  0.000e+000
                       Total CO2 (mol/kg)  =  0.000e+000
                      Temperature (deg C)  =  20.000
                  Electrical balance (eq)  =  3.208e-008
 Percent error, 100*(Cat-|An|)/(Cat+|An|)  =   0.00
                               Iterations  =  15
                                  Total H  = 1.110124e+002
                                  Total O  = 5.755552e+001

----------------------------Distribution of species----------------------------

                                                   Log       Log         Log 
   Species                 Molality    Activity  Molality  Activity     Gamma

   OH-                   1.823e-007  1.046e-007    -6.739    -6.981    -0.241
   H+                    8.629e-008  6.401e-008    -7.064    -7.194    -0.130
   H2O                   5.551e+001  9.859e-001     1.744    -0.006     0.000
H(0)            0.000e+000
   H2                    0.000e+000  0.000e+000   -43.787   -43.675     0.112
La              2.277e-001
   La+3                  1.441e-001  9.805e-003    -0.841    -2.009    -1.167
   LaNO3+2               8.358e-002  1.223e-002    -1.078    -1.913    -0.835
N(-3)           0.000e+000
   NH4+                  0.000e+000  0.000e+000   -55.339   -55.626    -0.286
   NH3                   0.000e+000  0.000e+000   -57.944   -57.832     0.112
N(0)            1.312e-007
   N2                    6.562e-008  8.484e-008    -7.183    -7.071     0.112
N(3)            2.260e-012
   NO2-                  2.260e-012  1.237e-012   -11.646   -11.908    -0.262
N(5)            6.831e-001
   NO3-                  5.995e-001  3.281e-001    -0.222    -0.484    -0.262
   LaNO3+2               8.358e-002  1.223e-002    -1.078    -1.913    -0.835
O(0)            3.207e-007
   O2                    1.603e-007  2.073e-007    -6.795    -6.683     0.112

------------------------------Saturation indices-------------------------------

	Phase               SI log IAP  log KT

	H2(g)           -40.55  -43.68   -3.13  H2
	H2O(g)           -1.65   -0.01    1.64  H2O
	N2(g)            -3.83   -7.07   -3.24  N2
	NH3(g)          -59.70  -57.83    1.87  NH3
	O2(g)            -3.83   -6.68   -2.85  O2

Reaction step 8.

Using solution 1.	
Using reaction 1.	

Reaction 1.	Irreversible reaction defined in simulation 6.

	 2.625e-001 moles of the following reaction have been added:

	                 Relative
	Reactant            moles

	La(NO3)3             1.00000

	                 Relative
	Element             moles
	La                   1.00000
	N                    3.00000
	O                    9.00000

-----------------------------Solution composition------------------------------

	Elements           Molality       Moles

	La               2.625e-001  2.625e-001
	N                7.875e-001  7.875e-001

----------------------------Description of solution----------------------------

                                       pH  =   7.195      Charge balance
                                       pe  =  13.085      Adjusted to redox equilibrium
       Specific Conductance (uS/cm, 25 oC) = 39641
                          Density (g/cm3)  =   1.02003
                        Activity of water  =   0.984
                           Ionic strength  =  1.264e+000
                       Mass of water (kg)  =  1.000e+000
                 Total alkalinity (eq/kg)  =  9.900e-008
                    Total carbon (mol/kg)  =  0.000e+000
                       Total CO2 (mol/kg)  =  0.000e+000
                      Temperature (deg C)  =  20.000
                  Electrical balance (eq)  =  3.205e-008
 Percent error, 100*(Cat-|An|)/(Cat+|An|)  =   0.00
                               Iterations  =  15
                                  Total H  = 1.110124e+002
                                  Total O  = 5.786872e+001

----------------------------Distribution of species----------------------------

                                                   Log       Log         Log 
   Species                 Molality    Activity  Molality  Activity     Gamma

   OH-                   1.854e-007  1.047e-007    -6.732    -6.980    -0.248
   H+                    8.638e-008  6.380e-008    -7.064    -7.195    -0.132
   H2O                   5.551e+001  9.839e-001     1.744    -0.007     0.000
H(0)            0.000e+000
   H2                    0.000e+000  0.000e+000   -43.815   -43.689     0.126
La              2.625e-001
   La+3                  1.587e-001  1.038e-002    -0.799    -1.984    -1.185
   LaNO3+2               1.038e-001  1.449e-002    -0.984    -1.839    -0.855
N(-3)           0.000e+000
   NH4+                  0.000e+000  0.000e+000   -55.335   -55.631    -0.296
   NH3                   0.000e+000  0.000e+000   -57.962   -57.836     0.126
N(0)            1.368e-007
   N2                    6.842e-008  9.153e-008    -7.165    -7.038     0.126
N(3)            2.503e-012
   NO2-                  2.503e-012  1.345e-012   -11.602   -11.871    -0.270
N(5)            7.875e-001
   NO3-                  6.837e-001  3.674e-001    -0.165    -0.435    -0.270
   LaNO3+2               1.038e-001  1.449e-002    -0.984    -1.839    -0.855
O(0)            3.285e-007
   O2                    1.642e-007  2.197e-007    -6.785    -6.658     0.126

------------------------------Saturation indices-------------------------------

	Phase               SI log IAP  log KT

	H2(g)           -40.56  -43.69   -3.13  H2
	H2O(g)           -1.65   -0.01    1.64  H2O
	N2(g)            -3.80   -7.04   -3.24  N2
	NH3(g)          -59.71  -57.84    1.87  NH3
	O2(g)            -3.80   -6.66   -2.85  O2

Reaction step 9.

Using solution 1.	
Using reaction 1.	

Reaction 1.	Irreversible reaction defined in simulation 6.

	 2.979e-001 moles of the following reaction have been added:

	                 Relative
	Reactant            moles

	La(NO3)3             1.00000

	                 Relative
	Element             moles
	La                   1.00000
	N                    3.00000
	O                    9.00000

-----------------------------Solution composition------------------------------

	Elements           Molality       Moles

	La               2.979e-001  2.979e-001
	N                8.937e-001  8.937e-001

----------------------------Description of solution----------------------------

                                       pH  =   7.199      Charge balance
                                       pe  =  13.089      Adjusted to redox equilibrium
       Specific Conductance (uS/cm, 25 oC) = 41557
                          Density (g/cm3)  =   1.02277
                        Activity of water  =   0.982
                           Ionic strength  =  1.411e+000
                       Mass of water (kg)  =  1.000e+000
                 Total alkalinity (eq/kg)  =  1.033e-007
                    Total carbon (mol/kg)  =  0.000e+000
                       Total CO2 (mol/kg)  =  0.000e+000
                      Temperature (deg C)  =  20.000
                  Electrical balance (eq)  =  3.212e-008
 Percent error, 100*(Cat-|An|)/(Cat+|An|)  =   0.00
                               Iterations  =  16
                                  Total H  = 1.110124e+002
                                  Total O  = 5.818732e+001

----------------------------Distribution of species----------------------------

                                                   Log       Log         Log 
   Species                 Molality    Activity  Molality  Activity     Gamma

   OH-                   1.892e-007  1.054e-007    -6.723    -6.977    -0.254
   H+                    8.595e-008  6.323e-008    -7.066    -7.199    -0.133
   H2O                   5.551e+001  9.819e-001     1.744    -0.008     0.000
H(0)            0.000e+000
   H2                    0.000e+000  0.000e+000   -43.844   -43.703     0.141
La              2.979e-001
   La+3                  1.725e-001  1.089e-002    -0.763    -1.963    -1.200
   LaNO3+2               1.254e-001  1.682e-002    -0.902    -1.774    -0.873
N(-3)           0.000e+000
   NH4+                  0.000e+000  0.000e+000   -55.347   -55.652    -0.304
   NH3                   0.000e+000  0.000e+000   -57.994   -57.853     0.141
N(0)            1.356e-007
   N2                    6.779e-008  9.381e-008    -7.169    -7.028     0.141
N(3)            2.724e-012
   NO2-                  2.724e-012  1.440e-012   -11.565   -11.842    -0.277
N(5)            8.937e-001
   NO3-                  7.683e-001  4.061e-001    -0.114    -0.391    -0.277
   LaNO3+2               1.254e-001  1.682e-002    -0.902    -1.774    -0.873
O(0)            3.385e-007
   O2                    1.693e-007  2.343e-007    -6.771    -6.630     0.141

------------------------------Saturation indices-------------------------------

	Phase               SI log IAP  log KT

	H2(g)           -40.58  -43.70   -3.13  H2
	H2O(g)           -1.65   -0.01    1.64  H2O
	N2(g)            -3.78   -7.03   -3.24  N2
	NH3(g)          -59.72  -57.85    1.87  NH3
	O2(g)            -3.78   -6.63   -2.85  O2

------------------
End of simulation.
------------------

------------------------------------
Reading input data for simulation 7.
------------------------------------

-----------
End of run.
-----------

