   Input file: saunders
  Output file: saunders.out
Database file: ../database/wateq4f.dat

------------------
Reading data base.
------------------

	SOLUTION_MASTER_SPECIES
	SOLUTION_SPECIES
	PHASES
	EXCHANGE_MASTER_SPECIES
	EXCHANGE_SPECIES
	SURFACE_MASTER_SPECIES
	SURFACE_SPECIES
	RATES
	END
------------------------------------
Reading input data for simulation 1.
------------------------------------

	DATABASE ../database/wateq4f.dat
	KNOBS
		logfile
	SOLUTION 0  Well no. 2 of Lee (1985), Coastal Plain, transport and mix withtemp17.5
		pH		7.55	
		pe 		2
		units 		mg/l
		Ca		58
		Mg		4.9
		Na		62
		K		1.5
		Fe		.66
		Cl		100
		C		210
		S(6)		5.8
		U		.005
	END
-------------------------------------------
Beginning of initial solution calculations.
-------------------------------------------

Initial solution 0.	Well no. 2 of Lee (1985), Coastal Plain, transport and mix withtemp17.5

-----------------------------Solution composition------------------------------

	Elements           Molality       Moles

	C                3.443e-003  3.443e-003
	Ca               1.448e-003  1.448e-003
	Cl               2.822e-003  2.822e-003
	Fe               1.182e-005  1.182e-005
	K                3.838e-005  3.838e-005
	Mg               2.016e-004  2.016e-004
	Na               2.698e-003  2.698e-003
	S(6)             6.040e-005  6.040e-005
	U                2.102e-008  2.102e-008

----------------------------Description of solution----------------------------

                                       pH  =   7.550    
                                       pe  =   2.000    
                        Activity of water  =   1.000
                           Ionic strength  =  7.706e-003
                       Mass of water (kg)  =  1.000e+000
                 Total alkalinity (eq/kg)  =  3.276e-003
                       Total CO2 (mol/kg)  =  3.443e-003
                      Temperature (deg C)  =  25.000
                  Electrical balance (eq)  = -1.608e-004
 Percent error, 100*(Cat-|An|)/(Cat+|An|)  =  -1.33
                               Iterations  =   9
                                  Total H  = 1.110157e+002
                                  Total O  = 5.551661e+001

----------------------------Distribution of species----------------------------

                                                   Log       Log         Log 
   Species                 Molality    Activity  Molality  Activity     Gamma

   OH-                   3.893e-007  3.551e-007    -6.410    -6.450    -0.040
   H+                    3.058e-008  2.818e-008    -7.514    -7.550    -0.036
   H2O                   5.551e+001  9.998e-001     1.744    -0.000     0.000
C(-4)           0.000e+000
   CH4                   0.000e+000  0.000e+000   -55.743   -55.742     0.001
C(4)            3.443e-003
   HCO3-                 3.191e-003  2.919e-003    -2.496    -2.535    -0.039
   CO2                   1.847e-004  1.850e-004    -3.734    -3.733     0.001
   CaHCO3+               3.979e-005  3.630e-005    -4.400    -4.440    -0.040
   CaCO3                 7.919e-006  7.933e-006    -5.101    -5.101     0.001
   CO3-2                 6.937e-006  4.858e-006    -5.159    -5.314    -0.155
   MgHCO3+               5.128e-006  4.678e-006    -5.290    -5.330    -0.040
   NaHCO3                4.030e-006  4.037e-006    -5.395    -5.394     0.001
   FeHCO3+               1.843e-006  1.681e-006    -5.734    -5.774    -0.040
   FeCO3                 6.699e-007  6.711e-007    -6.174    -6.173     0.001
   MgCO3                 6.336e-007  6.348e-007    -6.198    -6.197     0.001
   NaCO3-                2.438e-007  2.224e-007    -6.613    -6.653    -0.040
   UO2(CO3)2-2           1.288e-008  8.918e-009    -7.890    -8.050    -0.160
   UO2(CO3)3-4           8.043e-009  1.848e-009    -8.095    -8.733    -0.639
   UO2CO3                7.817e-011  7.831e-011   -10.107   -10.106     0.001
   (UO2)3(CO3)6-6        1.941e-020  7.092e-022   -19.712   -21.149    -1.437
   UO2(CO3)3-5           3.587e-023  3.603e-024   -22.445   -23.443    -0.998
   U(CO3)4-4             5.035e-028  1.157e-028   -27.298   -27.937    -0.639
   U(CO3)5-6             1.936e-031  7.074e-033   -30.713   -32.150    -1.437
Ca              1.448e-003
   Ca+2                  1.393e-003  9.748e-004    -2.856    -3.011    -0.155
   CaHCO3+               3.979e-005  3.630e-005    -4.400    -4.440    -0.040
   CaCO3                 7.919e-006  7.933e-006    -5.101    -5.101     0.001
   CaSO4                 7.001e-006  7.013e-006    -5.155    -5.154     0.001
   CaOH+                 6.292e-009  5.739e-009    -8.201    -8.241    -0.040
   CaHSO4+               1.269e-012  1.158e-012   -11.896   -11.936    -0.040
Cl              2.822e-003
   Cl-                   2.822e-003  2.571e-003    -2.549    -2.590    -0.040
   FeCl+                 2.240e-008  2.044e-008    -7.650    -7.690    -0.040
   UO2Cl+                1.575e-017  1.437e-017   -16.803   -16.843    -0.040
   FeCl+2                6.167e-018  4.270e-018   -17.210   -17.370    -0.160
   FeCl2+                5.375e-020  4.903e-020   -19.270   -19.310    -0.040
   UO2Cl2                1.980e-021  1.984e-021   -20.703   -20.703     0.001
   FeCl3                 1.258e-023  1.260e-023   -22.900   -22.900     0.001
   UCl+3                 0.000e+000  0.000e+000   -40.093   -40.452    -0.359
Fe(2)           1.096e-005
   Fe+2                  8.319e-006  5.759e-006    -5.080    -5.240    -0.160
   FeHCO3+               1.843e-006  1.681e-006    -5.734    -5.774    -0.040
   FeCO3                 6.699e-007  6.711e-007    -6.174    -6.173     0.001
   FeOH+                 7.083e-008  6.461e-008    -7.150    -7.190    -0.040
   FeSO4                 3.686e-008  3.693e-008    -7.433    -7.433     0.001
   FeCl+                 2.240e-008  2.044e-008    -7.650    -7.690    -0.040
   Fe(OH)2               1.947e-011  1.951e-011   -10.711   -10.710     0.001
   Fe(OH)3-              2.819e-014  2.571e-014   -13.550   -13.590    -0.040
   FeHSO4+               7.500e-015  6.841e-015   -14.125   -14.165    -0.040
Fe(3)           8.613e-007
   Fe(OH)3               6.751e-007  6.763e-007    -6.171    -6.170     0.001
   Fe(OH)2+              1.622e-007  1.480e-007    -6.790    -6.830    -0.040
   Fe(OH)4-              2.399e-008  2.188e-008    -7.620    -7.660    -0.040
   FeOH+2                1.820e-011  1.260e-011   -10.740   -10.900    -0.160
   Fe+3                  1.258e-016  5.500e-017   -15.900   -16.260    -0.359
   FeSO4+                2.384e-017  2.175e-017   -16.623   -16.663    -0.040
   FeCl+2                6.167e-018  4.270e-018   -17.210   -17.370    -0.160
   FeCl2+                5.375e-020  4.903e-020   -19.270   -19.310    -0.040
   Fe(SO4)2-             1.881e-020  1.715e-020   -19.726   -19.766    -0.040
   Fe2(OH)2+4            1.859e-020  4.271e-021   -19.731   -20.369    -0.639
   FeCl3                 1.258e-023  1.260e-023   -22.900   -22.900     0.001
   FeHSO4+2              2.370e-024  1.641e-024   -23.625   -23.785    -0.160
   Fe3(OH)4+5            1.315e-024  1.321e-025   -23.881   -24.879    -0.998
H(0)            1.123e-022
   H2                    5.613e-023  5.623e-023   -22.251   -22.250     0.001
K               3.838e-005
   K+                    3.837e-005  3.495e-005    -4.416    -4.457    -0.040
   KSO4-                 9.708e-009  8.855e-009    -8.013    -8.053    -0.040
Mg              2.016e-004
   Mg+2                  1.947e-004  1.369e-004    -3.711    -3.863    -0.153
   MgHCO3+               5.128e-006  4.678e-006    -5.290    -5.330    -0.040
   MgSO4                 1.155e-006  1.158e-006    -5.937    -5.936     0.001
   MgCO3                 6.336e-007  6.348e-007    -6.198    -6.197     0.001
   MgOH+                 1.934e-008  1.764e-008    -7.714    -7.754    -0.040
Na              2.698e-003
   Na+                   2.693e-003  2.459e-003    -2.570    -2.609    -0.040
   NaHCO3                4.030e-006  4.037e-006    -5.395    -5.394     0.001
   NaSO4-                4.872e-007  4.444e-007    -6.312    -6.352    -0.040
   NaCO3-                2.438e-007  2.224e-007    -6.613    -6.653    -0.040
O(0)            0.000e+000
   O2                    0.000e+000  0.000e+000   -47.881   -47.880     0.001
S(6)            6.040e-005
   SO4-2                 5.171e-005  3.606e-005    -4.286    -4.443    -0.157
   CaSO4                 7.001e-006  7.013e-006    -5.155    -5.154     0.001
   MgSO4                 1.155e-006  1.158e-006    -5.937    -5.936     0.001
   NaSO4-                4.872e-007  4.444e-007    -6.312    -6.352    -0.040
   FeSO4                 3.686e-008  3.693e-008    -7.433    -7.433     0.001
   KSO4-                 9.708e-009  8.855e-009    -8.013    -8.053    -0.040
   HSO4-                 1.083e-010  9.880e-011    -9.965   -10.005    -0.040
   CaHSO4+               1.269e-012  1.158e-012   -11.896   -11.936    -0.040
   FeHSO4+               7.500e-015  6.841e-015   -14.125   -14.165    -0.040
   UO2SO4                1.922e-016  1.925e-016   -15.716   -15.716     0.001
   FeSO4+                2.384e-017  2.175e-017   -16.623   -16.663    -0.040
   UO2(SO4)2-2           9.797e-020  6.783e-020   -19.009   -19.169    -0.160
   Fe(SO4)2-             1.881e-020  1.715e-020   -19.726   -19.766    -0.040
   FeHSO4+2              2.370e-024  1.641e-024   -23.625   -23.785    -0.160
   USO4+2                5.179e-038  3.586e-038   -37.286   -37.445    -0.160
   U(SO4)2               1.073e-038  1.075e-038   -37.969   -37.968     0.001
U(3)            0.000e+000
   U+3                   0.000e+000  0.000e+000   -50.019   -50.378    -0.359
U(4)            1.314e-018
   U(OH)4                1.314e-018  1.316e-018   -17.882   -17.881     0.001
   U(OH)3+               1.487e-022  1.356e-022   -21.828   -21.868    -0.040
   U(OH)2+2              2.553e-027  1.768e-027   -26.593   -26.753    -0.160
   U(CO3)4-4             5.035e-028  1.157e-028   -27.298   -27.937    -0.639
   U(CO3)5-6             1.936e-031  7.074e-033   -30.713   -32.150    -1.437
   UOH+3                 6.121e-033  2.676e-033   -32.213   -32.573    -0.359
   USO4+2                5.179e-038  3.586e-038   -37.286   -37.445    -0.160
   U(SO4)2               1.073e-038  1.075e-038   -37.969   -37.968     0.001
   U+4                   1.139e-039  2.616e-040   -38.944   -39.582    -0.639
   UCl+3                 0.000e+000  0.000e+000   -40.093   -40.452    -0.359
   U6(OH)15+9            0.000e+000  0.000e+000  -138.212  -141.446    -3.234
U(5)            1.280e-015
   UO2+                  1.280e-015  1.168e-015   -14.893   -14.933    -0.040
   UO2(CO3)3-5           3.587e-023  3.603e-024   -22.445   -23.443    -0.998
U(6)            2.102e-008
   UO2(CO3)2-2           1.288e-008  8.918e-009    -7.890    -8.050    -0.160
   UO2(CO3)3-4           8.043e-009  1.848e-009    -8.095    -8.733    -0.639
   UO2CO3                7.817e-011  7.831e-011   -10.107   -10.106     0.001
   UO2(OH)3-             1.167e-011  1.065e-011   -10.933   -10.973    -0.040
   UO2OH+                9.274e-013  8.459e-013   -12.033   -12.073    -0.040
   UO2+2                 5.459e-015  3.779e-015   -14.263   -14.423    -0.160
   UO2SO4                1.922e-016  1.925e-016   -15.716   -15.716     0.001
   UO2Cl+                1.575e-017  1.437e-017   -16.803   -16.843    -0.040
   UO2(OH)4-2            8.646e-018  5.986e-018   -17.063   -17.223    -0.160
   UO2(SO4)2-2           9.797e-020  6.783e-020   -19.009   -19.169    -0.160
   (UO2)2(OH)2+2         6.228e-020  4.312e-020   -19.206   -19.365    -0.160
   (UO2)3(CO3)6-6        1.941e-020  7.092e-022   -19.712   -21.149    -1.437
   UO2Cl2                1.980e-021  1.984e-021   -20.703   -20.703     0.001
   (UO2)3(OH)5+          9.371e-022  8.548e-022   -21.028   -21.068    -0.040
   (UO2)3(OH)7-          4.184e-022  3.817e-022   -21.378   -21.418    -0.040
   (UO2)2OH+3            2.312e-024  1.011e-024   -23.636   -23.995    -0.359
   (UO2)3(OH)4+2         1.555e-025  1.076e-025   -24.808   -24.968    -0.160
   (UO2)4(OH)7+          1.991e-027  1.816e-027   -26.701   -26.741    -0.040

------------------------------Saturation indices-------------------------------

	Phase               SI log IAP  log KT

	Anhydrite        -3.09   -7.45   -4.36  CaSO4
	Aragonite         0.01   -8.32   -8.34  CaCO3
	Artinite         -7.54    2.06    9.60  MgCO3:Mg(OH)2:3H2O
	B-UO2(OH)2       -4.87    0.68    5.54  UO2(OH)2
	Brucite          -5.60   11.24   16.84  Mg(OH)2
	Calcite           0.16   -8.32   -8.48  CaCO3
	CH4(g)          -52.88  -55.74   -2.86  CH4
	CO2(g)           -2.26   -3.73   -1.47  CO2
	Dolomite         -0.41  -17.50  -17.09  CaMg(CO3)2
	Dolomite(d)      -0.96  -17.50  -16.54  CaMg(CO3)2
	Epsomite         -6.17   -8.31   -2.14  MgSO4:7H2O
	Fe(OH)2.7Cl.3     6.39    3.35   -3.04  Fe(OH)2.7Cl0.3
	Fe(OH)3(a)        1.50    6.39    4.89  Fe(OH)3
	Fe3(OH)8          2.42   22.64   20.22  Fe3(OH)8
	Goethite          7.39    6.39   -1.00  FeOOH
	Gummite          -9.73    0.68   10.40  UO3
	Gypsum           -2.87   -7.45   -4.58  CaSO4:2H2O
	H2(g)           -19.10  -22.25   -3.15  H2
	H2O(g)           -1.51   -0.00    1.51  H2O
	Halite           -6.78   -5.20    1.58  NaCl
	Hematite         16.79   12.78   -4.01  Fe2O3
	Huntite          -5.89  -35.86  -29.97  CaMg3(CO3)4
	Hydromagnesite  -16.71  -25.47   -8.76  Mg5(CO3)4(OH)2:4H2O
	Jarosite(ss)     -7.56  -17.39   -9.83  (K0.77Na0.03H0.2)Fe3(SO4)2(OH)6
	Jarosite-K       -7.61  -16.82   -9.21  KFe3(SO4)2(OH)6
	Jarosite-Na      -9.69  -14.97   -5.28  NaFe3(SO4)2(OH)6
	JarositeH       -14.53  -19.92   -5.39  (H3O)Fe3(SO4)2(OH)6
	Maghemite         6.39   12.78    6.39  Fe2O3
	Magnesite        -1.15   -9.18   -8.03  MgCO3
	Magnetite        18.90   22.64    3.74  Fe3O4
	Melanterite      -7.47   -9.68   -2.21  FeSO4:7H2O
	Mirabilite       -8.55   -9.66   -1.11  Na2SO4:10H2O
	Na4UO2(CO3)3    -24.51  -40.80  -16.29  Na4UO2(CO3)3
	Nahcolite        -4.60   -5.14   -0.55  NaHCO3
	Natron           -9.22  -10.53   -1.31  Na2CO3:10H2O
	Nesquehonite     -3.56   -9.18   -5.62  MgCO3:3H2O
	O2(g)           -44.99  -47.88   -2.89  O2
	Portlandite     -10.71   12.09   22.80  Ca(OH)2
	Rutherfordine    -5.29  -19.74  -14.45  UO2CO3
	Schoepite        -4.73    0.68    5.40  UO2(OH)2:H2O
	Siderite          0.34  -10.55  -10.89  FeCO3
	Siderite(d)(3)   -0.10  -10.55  -10.45  FeCO3
	Thenardite       -9.48   -9.66   -0.18  Na2SO4
	Thermonatrite   -10.66  -10.53    0.13  Na2CO3:H2O
	Trona           -14.88  -15.68   -0.80  NaHCO3:Na2CO3:2H2O
	U(OH)2SO4       -25.73  -28.93   -3.20  U(OH)2SO4
	U3O8(c)         -10.48   10.05   20.53  U3O8
	U4O9(c)         -15.05  -18.43   -3.38  U4O9
	UO2(a)           -9.48   -9.38    0.10  UO2
	UO3(gamma)       -7.04    0.68    7.72  UO3
	Uraninite(c)     -4.58   -9.38   -4.80  UO2

------------------
End of simulation.
------------------

------------------------------------
Reading input data for simulation 2.
------------------------------------

	PHASES
		Graphite          998
		C + 4H+ + 4e- = CH4
		log_k             6.03
	SOLUTION 1-5 
		pe	-4
		temp	25
		units       mg/l
		Na	60
		Cl	100
		Fe	.01
	EQUILIBRIUM_PHASES 1-5
		Pyrite	0	0
		CO2(g)	-3.5
		Uraninite(c)   0    0
		Calcite		0	0
		Graphite		0	.0000005
	SAVE SOLUTION 1-5
	END
-------------------------------------------
Beginning of initial solution calculations.
-------------------------------------------

Initial solution 1.	

-----------------------------Solution composition------------------------------

	Elements           Molality       Moles

	Cl               2.821e-003  2.821e-003
	Fe               1.791e-007  1.791e-007
	Na               2.610e-003  2.610e-003

----------------------------Description of solution----------------------------

                                       pH  =   7.000    
                                       pe  =  -4.000    
                        Activity of water  =   1.000
                           Ionic strength  =  2.716e-003
                       Mass of water (kg)  =  1.000e+000
                 Total alkalinity (eq/kg)  =  1.020e-009
                    Total carbon (mol/kg)  =  0.000e+000
                       Total CO2 (mol/kg)  =  0.000e+000
                      Temperature (deg C)  =  25.000
                  Electrical balance (eq)  = -2.105e-004
 Percent error, 100*(Cat-|An|)/(Cat+|An|)  =  -3.87
                               Iterations  =   4
                                  Total H  = 1.110124e+002
                                  Total O  = 5.550622e+001

----------------------------Distribution of species----------------------------

                                                   Log       Log         Log 
   Species                 Molality    Activity  Molality  Activity     Gamma

   OH-                   1.060e-007  1.001e-007    -6.975    -7.000    -0.025
   H+                    1.054e-007  1.000e-007    -6.977    -7.000    -0.023
   H2O                   5.551e+001  9.999e-001     1.744    -0.000     0.000
Cl              2.821e-003
   Cl-                   2.821e-003  2.663e-003    -2.550    -2.575    -0.025
   FeCl+                 5.515e-010  5.209e-010    -9.258    -9.283    -0.025
   FeCl+2                1.368e-025  1.088e-025   -24.864   -24.963    -0.099
   FeCl2+                1.371e-027  1.295e-027   -26.863   -26.888    -0.025
   FeCl3                 3.446e-031  3.448e-031   -30.463   -30.462     0.000
Fe(2)           1.791e-007
   Fe+2                  1.781e-007  1.417e-007    -6.749    -6.849    -0.099
   FeCl+                 5.515e-010  5.209e-010    -9.258    -9.283    -0.025
   FeOH+                 4.743e-010  4.480e-010    -9.324    -9.349    -0.025
   Fe(OH)2               3.810e-014  3.813e-014   -13.419   -13.419     0.000
   Fe(OH)3-              1.500e-017  1.416e-017   -16.824   -16.849    -0.025
Fe(3)           6.823e-016
   Fe(OH)3               3.723e-016  3.726e-016   -15.429   -15.429     0.000
   Fe(OH)2+              3.062e-016  2.892e-016   -15.514   -15.539    -0.025
   Fe(OH)4-              3.597e-018  3.398e-018   -17.444   -17.469    -0.025
   FeOH+2                1.098e-019  8.735e-020   -18.959   -19.059    -0.099
   Fe+3                  2.263e-024  1.353e-024   -23.645   -23.869    -0.223
   FeCl+2                1.368e-025  1.088e-025   -24.864   -24.963    -0.099
   FeCl2+                1.371e-027  1.295e-027   -26.863   -26.888    -0.025
   FeCl3                 3.446e-031  3.448e-031   -30.463   -30.462     0.000
   Fe2(OH)2+4            5.124e-037  2.054e-037   -36.290   -36.687    -0.397
   Fe3(OH)4+5            0.000e+000  0.000e+000   -49.286   -49.906    -0.620
H(0)            1.415e-009
   H2                    7.075e-010  7.079e-010    -9.150    -9.150     0.000
Na              2.610e-003
   Na+                   2.610e-003  2.466e-003    -2.583    -2.608    -0.025
O(0)            0.000e+000
   O2                    0.000e+000  0.000e+000   -74.080   -74.080     0.000

------------------------------Saturation indices-------------------------------

	Phase               SI log IAP  log KT

	Fe(OH)2.7Cl.3    -2.70   -5.74   -3.04  Fe(OH)2.7Cl0.3
	Fe(OH)3(a)       -7.76   -2.87    4.89  Fe(OH)3
	Fe3(OH)8        -18.81    1.41   20.22  Fe3(OH)8
	Goethite         -1.87   -2.87   -1.00  FeOOH
	H2(g)            -6.00   -9.15   -3.15  H2
	H2O(g)           -1.51   -0.00    1.51  H2O
	Halite           -6.76   -5.18    1.58  NaCl
	Hematite         -1.73   -5.74   -4.01  Fe2O3
	Maghemite       -12.12   -5.74    6.39  Fe2O3
	Magnetite        -2.32    1.41    3.74  Fe3O4
	O2(g)           -71.19  -74.08   -2.89  O2

-----------------------------------------
Beginning of batch-reaction calculations.
-----------------------------------------

Reaction step 1.

WARNING: Element Ca is contained in Calcite (which has 0.0 mass),	
but is not in solution or other phases.
WARNING: Element S is contained in Pyrite (which has 0.0 mass),	
but is not in solution or other phases.
WARNING: Element U is contained in Uraninite(c) (which has 0.0 mass),	
but is not in solution or other phases.
WARNING: Element in phase, Calcite, is not in model.
WARNING: Element in phase, Uraninite(c), is not in model.
Using solution 1.	
Using pure phase assemblage 1.	

-------------------------------Phase assemblage--------------------------------

                                                      Moles in assemblage
Phase                  SI log IAP  log KT      Initial       Final       Delta

Calcite              Element not present.   0.000e+000           0  0.000e+000
CO2(g)              -3.50   -4.97   -1.47   1.000e+001  1.000e+001 -1.303e-005
Graphite             0.00    6.03    6.03   5.000e-007  4.135e-007 -8.648e-008
Pyrite               Element not present.   0.000e+000           0  0.000e+000
Uraninite(c)         Element not present.   0.000e+000           0  0.000e+000

-----------------------------Solution composition------------------------------

	Elements           Molality       Moles

	C                1.311e-005  1.311e-005
	Cl               2.821e-003  2.821e-003
	Fe               1.791e-007  1.791e-007
	Na               2.610e-003  2.610e-003

----------------------------Description of solution----------------------------

                                       pH  =   5.659      Charge balance
                                       pe  =  -2.311      Adjusted to redox equilibrium
                        Activity of water  =   1.000
                           Ionic strength  =  2.718e-003
                       Mass of water (kg)  =  1.000e+000
                 Total alkalinity (eq/kg)  =  1.020e-009
                       Total CO2 (mol/kg)  =  1.307e-005
                      Temperature (deg C)  =  25.000
                  Electrical balance (eq)  = -2.105e-004
 Percent error, 100*(Cat-|An|)/(Cat+|An|)  =  -3.87
                               Iterations  =   9
                                  Total H  = 1.110124e+002
                                  Total O  = 5.550624e+001

----------------------------Distribution of species----------------------------

                                                   Log       Log         Log 
   Species                 Molality    Activity  Molality  Activity     Gamma

   H+                    2.314e-006  2.195e-006    -5.636    -5.659    -0.023
   OH-                   4.829e-009  4.561e-009    -8.316    -8.341    -0.025
   H2O                   5.551e+001  9.999e-001     1.744    -0.000     0.000
C(-4)           4.338e-008
   CH4                   4.338e-008  4.341e-008    -7.363    -7.362     0.000
C(4)            1.307e-005
   CO2                   1.076e-005  1.077e-005    -4.968    -4.968     0.000
   HCO3-                 2.307e-006  2.182e-006    -5.637    -5.661    -0.024
   NaHCO3                3.024e-009  3.026e-009    -8.519    -8.519     0.000
   CO3-2                 5.831e-011  4.662e-011   -10.234   -10.331    -0.097
   FeHCO3+               3.280e-011  3.098e-011   -10.484   -10.509    -0.025
   NaCO3-                2.267e-012  2.141e-012   -11.645   -11.669    -0.025
   FeCO3                 1.587e-013  1.588e-013   -12.799   -12.799     0.000
Cl              2.821e-003
   Cl-                   2.821e-003  2.663e-003    -2.550    -2.575    -0.025
   FeCl+                 5.528e-010  5.220e-010    -9.257    -9.282    -0.025
   FeCl+2                6.706e-024  5.336e-024   -23.174   -23.273    -0.099
   FeCl2+                6.721e-026  6.348e-026   -25.173   -25.197    -0.025
   FeCl3                 1.689e-029  1.690e-029   -28.772   -28.772     0.000
Fe(2)           1.791e-007
   Fe+2                  1.785e-007  1.420e-007    -6.748    -6.848    -0.099
   FeCl+                 5.528e-010  5.220e-010    -9.257    -9.282    -0.025
   FeHCO3+               3.280e-011  3.098e-011   -10.484   -10.509    -0.025
   FeOH+                 2.166e-011  2.046e-011   -10.664   -10.689    -0.025
   FeCO3                 1.587e-013  1.588e-013   -12.799   -12.799     0.000
   Fe(OH)2               7.928e-017  7.933e-017   -16.101   -16.101     0.000
   Fe(OH)3-              1.422e-021  1.343e-021   -20.847   -20.872    -0.025
Fe(3)           3.315e-017
   Fe(OH)2+              3.117e-017  2.944e-017   -16.506   -16.531    -0.025
   Fe(OH)3               1.727e-018  1.728e-018   -17.763   -17.762     0.000
   FeOH+2                2.453e-019  1.952e-019   -18.610   -18.710    -0.099
   Fe(OH)4-              7.602e-022  7.179e-022   -21.119   -21.144    -0.025
   Fe+3                  1.110e-022  6.634e-023   -21.955   -22.178    -0.223
   FeCl+2                6.706e-024  5.336e-024   -23.174   -23.273    -0.099
   FeCl2+                6.721e-026  6.348e-026   -25.173   -25.197    -0.025
   FeCl3                 1.689e-029  1.690e-029   -28.772   -28.772     0.000
   Fe2(OH)2+4            2.558e-036  1.025e-036   -35.592   -35.989    -0.397
   Fe3(OH)4+5            0.000e+000  0.000e+000   -49.580   -50.200    -0.621
H(0)            2.848e-010
   H2                    1.424e-010  1.425e-010    -9.846    -9.846     0.000
Na              2.610e-003
   Na+                   2.610e-003  2.466e-003    -2.583    -2.608    -0.025
   NaHCO3                3.024e-009  3.026e-009    -8.519    -8.519     0.000
   NaCO3-                2.267e-012  2.141e-012   -11.645   -11.669    -0.025
O(0)            0.000e+000
   O2                    0.000e+000  0.000e+000   -72.688   -72.688     0.000

------------------------------Saturation indices-------------------------------

	Phase               SI log IAP  log KT

	CH4(g)           -4.50   -7.36   -2.86  CH4
	CO2(g)           -3.50   -4.97   -1.47  CO2
	Fe(OH)2.7Cl.3    -4.63   -7.67   -3.04  Fe(OH)2.7Cl0.3
	Fe(OH)3(a)      -10.09   -5.20    4.89  Fe(OH)3
	Fe3(OH)8        -26.16   -5.94   20.22  Fe3(OH)8
	Goethite         -4.20   -5.20   -1.00  FeOOH
	Graphite          0.00    6.03    6.03  C
	H2(g)            -6.70   -9.85   -3.15  H2
	H2O(g)           -1.51   -0.00    1.51  H2O
	Halite           -6.76   -5.18    1.58  NaCl
	Hematite         -6.40  -10.40   -4.01  Fe2O3
	Maghemite       -16.79  -10.40    6.39  Fe2O3
	Magnetite        -9.67   -5.94    3.74  Fe3O4
	Nahcolite        -7.72   -8.27   -0.55  NaHCO3
	Natron          -14.24  -15.55   -1.31  Na2CO3:10H2O
	O2(g)           -69.80  -72.69   -2.89  O2
	Siderite         -6.29  -17.18  -10.89  FeCO3
	Siderite(d)(3)   -6.73  -17.18  -10.45  FeCO3
	Thermonatrite   -15.67  -15.55    0.13  Na2CO3:H2O
	Trona           -23.02  -23.82   -0.80  NaHCO3:Na2CO3:2H2O

------------------
End of simulation.
------------------

------------------------------------
Reading input data for simulation 3.
------------------------------------

	SOLUTION 6-7 
		pe	-4
		temp	25
		units				mg/l
		Na	60
		Cl	100
		Fe	.01
	EQUILIBRIUM_PHASES 6-7
		Pyrite     0     0
		CO2(g)	-3.5
		Uraninite(c)	0	0
		Calcite		0	0
		Graphite		0	.0001
	SAVE SOLUTION 6-7
	ADVECTION
		cells		7
		shifts		21
	END
-------------------------------------------
Beginning of initial solution calculations.
-------------------------------------------

Initial solution 6.	

-----------------------------Solution composition------------------------------

	Elements           Molality       Moles

	Cl               2.821e-003  2.821e-003
	Fe               1.791e-007  1.791e-007
	Na               2.610e-003  2.610e-003

----------------------------Description of solution----------------------------

                                       pH  =   7.000    
                                       pe  =  -4.000    
                        Activity of water  =   1.000
                           Ionic strength  =  2.716e-003
                       Mass of water (kg)  =  1.000e+000
                 Total alkalinity (eq/kg)  =  1.020e-009
                    Total carbon (mol/kg)  =  0.000e+000
                       Total CO2 (mol/kg)  =  0.000e+000
                      Temperature (deg C)  =  25.000
                  Electrical balance (eq)  = -2.105e-004
 Percent error, 100*(Cat-|An|)/(Cat+|An|)  =  -3.87
                               Iterations  =   4
                                  Total H  = 1.110124e+002
                                  Total O  = 5.550622e+001

----------------------------Distribution of species----------------------------

                                                   Log       Log         Log 
   Species                 Molality    Activity  Molality  Activity     Gamma

   OH-                   1.060e-007  1.001e-007    -6.975    -7.000    -0.025
   H+                    1.054e-007  1.000e-007    -6.977    -7.000    -0.023
   H2O                   5.551e+001  9.999e-001     1.744    -0.000     0.000
Cl              2.821e-003
   Cl-                   2.821e-003  2.663e-003    -2.550    -2.575    -0.025
   FeCl+                 5.515e-010  5.209e-010    -9.258    -9.283    -0.025
   FeCl+2                1.368e-025  1.088e-025   -24.864   -24.963    -0.099
   FeCl2+                1.371e-027  1.295e-027   -26.863   -26.888    -0.025
   FeCl3                 3.446e-031  3.448e-031   -30.463   -30.462     0.000
Fe(2)           1.791e-007
   Fe+2                  1.781e-007  1.417e-007    -6.749    -6.849    -0.099
   FeCl+                 5.515e-010  5.209e-010    -9.258    -9.283    -0.025
   FeOH+                 4.743e-010  4.480e-010    -9.324    -9.349    -0.025
   Fe(OH)2               3.810e-014  3.813e-014   -13.419   -13.419     0.000
   Fe(OH)3-              1.500e-017  1.416e-017   -16.824   -16.849    -0.025
Fe(3)           6.823e-016
   Fe(OH)3               3.723e-016  3.726e-016   -15.429   -15.429     0.000
   Fe(OH)2+              3.062e-016  2.892e-016   -15.514   -15.539    -0.025
   Fe(OH)4-              3.597e-018  3.398e-018   -17.444   -17.469    -0.025
   FeOH+2                1.098e-019  8.735e-020   -18.959   -19.059    -0.099
   Fe+3                  2.263e-024  1.353e-024   -23.645   -23.869    -0.223
   FeCl+2                1.368e-025  1.088e-025   -24.864   -24.963    -0.099
   FeCl2+                1.371e-027  1.295e-027   -26.863   -26.888    -0.025
   FeCl3                 3.446e-031  3.448e-031   -30.463   -30.462     0.000
   Fe2(OH)2+4            5.124e-037  2.054e-037   -36.290   -36.687    -0.397
   Fe3(OH)4+5            0.000e+000  0.000e+000   -49.286   -49.906    -0.620
H(0)            1.415e-009
   H2                    7.075e-010  7.079e-010    -9.150    -9.150     0.000
Na              2.610e-003
   Na+                   2.610e-003  2.466e-003    -2.583    -2.608    -0.025
O(0)            0.000e+000
   O2                    0.000e+000  0.000e+000   -74.080   -74.080     0.000

------------------------------Saturation indices-------------------------------

	Phase               SI log IAP  log KT

	Fe(OH)2.7Cl.3    -2.70   -5.74   -3.04  Fe(OH)2.7Cl0.3
	Fe(OH)3(a)       -7.76   -2.87    4.89  Fe(OH)3
	Fe3(OH)8        -18.81    1.41   20.22  Fe3(OH)8
	Goethite         -1.87   -2.87   -1.00  FeOOH
	H2(g)            -6.00   -9.15   -3.15  H2
	H2O(g)           -1.51   -0.00    1.51  H2O
	Halite           -6.76   -5.18    1.58  NaCl
	Hematite         -1.73   -5.74   -4.01  Fe2O3
	Maghemite       -12.12   -5.74    6.39  Fe2O3
	Magnetite        -2.32    1.41    3.74  Fe3O4
	O2(g)           -71.19  -74.08   -2.89  O2

-----------------------------------------
Beginning of batch-reaction calculations.
-----------------------------------------

Reaction step 1.

WARNING: Element Ca is contained in Calcite (which has 0.0 mass),	
but is not in solution or other phases.
WARNING: Element S is contained in Pyrite (which has 0.0 mass),	
but is not in solution or other phases.
WARNING: Element U is contained in Uraninite(c) (which has 0.0 mass),	
but is not in solution or other phases.
WARNING: Element in phase, Calcite, is not in model.
WARNING: Element in phase, Uraninite(c), is not in model.
Using solution 6.	
Using pure phase assemblage 6.	

-------------------------------Phase assemblage--------------------------------

                                                      Moles in assemblage
Phase                  SI log IAP  log KT      Initial       Final       Delta

Calcite              Element not present.   0.000e+000           0  0.000e+000
CO2(g)              -3.50   -4.97   -1.47   1.000e+001  1.000e+001 -1.303e-005
Graphite             0.00    6.03    6.03   1.000e-004  9.991e-005 -8.648e-008
Pyrite               Element not present.   0.000e+000           0  0.000e+000
Uraninite(c)         Element not present.   0.000e+000           0  0.000e+000

-----------------------------Solution composition------------------------------

	Elements           Molality       Moles

	C                1.311e-005  1.311e-005
	Cl               2.821e-003  2.821e-003
	Fe               1.791e-007  1.791e-007
	Na               2.610e-003  2.610e-003

----------------------------Description of solution----------------------------

                                       pH  =   5.659      Charge balance
                                       pe  =  -2.311      Adjusted to redox equilibrium
                        Activity of water  =   1.000
                           Ionic strength  =  2.718e-003
                       Mass of water (kg)  =  1.000e+000
                 Total alkalinity (eq/kg)  =  1.020e-009
                       Total CO2 (mol/kg)  =  1.307e-005
                      Temperature (deg C)  =  25.000
                  Electrical balance (eq)  = -2.105e-004
 Percent error, 100*(Cat-|An|)/(Cat+|An|)  =  -3.87
                               Iterations  =   9
                                  Total H  = 1.110124e+002
                                  Total O  = 5.550624e+001

----------------------------Distribution of species----------------------------

                                                   Log       Log         Log 
   Species                 Molality    Activity  Molality  Activity     Gamma

   H+                    2.314e-006  2.195e-006    -5.636    -5.659    -0.023
   OH-                   4.829e-009  4.561e-009    -8.316    -8.341    -0.025
   H2O                   5.551e+001  9.999e-001     1.744    -0.000     0.000
C(-4)           4.338e-008
   CH4                   4.338e-008  4.341e-008    -7.363    -7.362     0.000
C(4)            1.307e-005
   CO2                   1.076e-005  1.077e-005    -4.968    -4.968     0.000
   HCO3-                 2.307e-006  2.182e-006    -5.637    -5.661    -0.024
   NaHCO3                3.024e-009  3.026e-009    -8.519    -8.519     0.000
   CO3-2                 5.831e-011  4.662e-011   -10.234   -10.331    -0.097
   FeHCO3+               3.280e-011  3.098e-011   -10.484   -10.509    -0.025
   NaCO3-                2.267e-012  2.141e-012   -11.645   -11.669    -0.025
   FeCO3                 1.587e-013  1.588e-013   -12.799   -12.799     0.000
Cl              2.821e-003
   Cl-                   2.821e-003  2.663e-003    -2.550    -2.575    -0.025
   FeCl+                 5.528e-010  5.220e-010    -9.257    -9.282    -0.025
   FeCl+2                6.706e-024  5.336e-024   -23.174   -23.273    -0.099
   FeCl2+                6.721e-026  6.348e-026   -25.173   -25.197    -0.025
   FeCl3                 1.689e-029  1.690e-029   -28.772   -28.772     0.000
Fe(2)           1.791e-007
   Fe+2                  1.785e-007  1.420e-007    -6.748    -6.848    -0.099
   FeCl+                 5.528e-010  5.220e-010    -9.257    -9.282    -0.025
   FeHCO3+               3.280e-011  3.098e-011   -10.484   -10.509    -0.025
   FeOH+                 2.166e-011  2.046e-011   -10.664   -10.689    -0.025
   FeCO3                 1.587e-013  1.588e-013   -12.799   -12.799     0.000
   Fe(OH)2               7.928e-017  7.933e-017   -16.101   -16.101     0.000
   Fe(OH)3-              1.422e-021  1.343e-021   -20.847   -20.872    -0.025
Fe(3)           3.315e-017
   Fe(OH)2+              3.117e-017  2.944e-017   -16.506   -16.531    -0.025
   Fe(OH)3               1.727e-018  1.728e-018   -17.763   -17.762     0.000
   FeOH+2                2.453e-019  1.952e-019   -18.610   -18.710    -0.099
   Fe(OH)4-              7.602e-022  7.179e-022   -21.119   -21.144    -0.025
   Fe+3                  1.110e-022  6.634e-023   -21.955   -22.178    -0.223
   FeCl+2                6.706e-024  5.336e-024   -23.174   -23.273    -0.099
   FeCl2+                6.721e-026  6.348e-026   -25.173   -25.197    -0.025
   FeCl3                 1.689e-029  1.690e-029   -28.772   -28.772     0.000
   Fe2(OH)2+4            2.558e-036  1.025e-036   -35.592   -35.989    -0.397
   Fe3(OH)4+5            0.000e+000  0.000e+000   -49.580   -50.200    -0.621
H(0)            2.848e-010
   H2                    1.424e-010  1.425e-010    -9.846    -9.846     0.000
Na              2.610e-003
   Na+                   2.610e-003  2.466e-003    -2.583    -2.608    -0.025
   NaHCO3                3.024e-009  3.026e-009    -8.519    -8.519     0.000
   NaCO3-                2.267e-012  2.141e-012   -11.645   -11.669    -0.025
O(0)            0.000e+000
   O2                    0.000e+000  0.000e+000   -72.688   -72.688     0.000

------------------------------Saturation indices-------------------------------

	Phase               SI log IAP  log KT

	CH4(g)           -4.50   -7.36   -2.86  CH4
	CO2(g)           -3.50   -4.97   -1.47  CO2
	Fe(OH)2.7Cl.3    -4.63   -7.67   -3.04  Fe(OH)2.7Cl0.3
	Fe(OH)3(a)      -10.09   -5.20    4.89  Fe(OH)3
	Fe3(OH)8        -26.16   -5.94   20.22  Fe3(OH)8
	Goethite         -4.20   -5.20   -1.00  FeOOH
	Graphite          0.00    6.03    6.03  C
	H2(g)            -6.70   -9.85   -3.15  H2
	H2O(g)           -1.51   -0.00    1.51  H2O
	Halite           -6.76   -5.18    1.58  NaCl
	Hematite         -6.40  -10.40   -4.01  Fe2O3
	Maghemite       -16.79  -10.40    6.39  Fe2O3
	Magnetite        -9.67   -5.94    3.74  Fe3O4
	Nahcolite        -7.72   -8.27   -0.55  NaHCO3
	Natron          -14.24  -15.55   -1.31  Na2CO3:10H2O
	O2(g)           -69.80  -72.69   -2.89  O2
	Siderite         -6.29  -17.18  -10.89  FeCO3
	Siderite(d)(3)   -6.73  -17.18  -10.45  FeCO3
	Thermonatrite   -15.67  -15.55    0.13  Na2CO3:H2O
	Trona           -23.02  -23.82   -0.80  NaHCO3:Na2CO3:2H2O

------------------------------------
Beginning of advection calculations.
------------------------------------

Beginning of advection time step 1, cumulative pore volumes 0.142857.

Cell 1.

Using solution 1.	Well no. 2 of Lee (1985), Coastal Plain, transport and mix withtemp17.5
Using pure phase assemblage 1.	

-------------------------------Phase assemblage--------------------------------

                                                      Moles in assemblage
Phase                  SI log IAP  log KT      Initial       Final       Delta

Calcite              0.00   -8.48   -8.48   0.000e+000  1.037e-003  1.037e-003
CO2(g)              -3.50   -4.97   -1.47   1.000e+001  1.000e+001  1.220e-003
Graphite            -2.39    3.64    6.03   5.000e-007           0 -5.000e-007
Pyrite               0.00  -18.48  -18.48   0.000e+000  7.831e-008  7.831e-008
Uraninite(c)        -0.00   -4.80   -4.80   0.000e+000  2.102e-008  2.102e-008

-----------------------------Solution composition------------------------------

	Elements           Molality       Moles

	C                1.186e-003  1.187e-003
	Ca               4.107e-004  4.107e-004
	Cl               2.822e-003  2.822e-003
	Fe               1.174e-005  1.174e-005
	K                3.838e-005  3.838e-005
	Mg               2.016e-004  2.016e-004
	Na               2.698e-003  2.698e-003
	S                6.025e-005  6.025e-005
	U                5.113e-014  5.113e-014

----------------------------Description of solution----------------------------

                                       pH  =   8.347      Charge balance
                                       pe  =  -4.401      Adjusted to redox equilibrium
                        Activity of water  =   1.000
                           Ionic strength  =  4.703e-003
                       Mass of water (kg)  =  1.000e+000
                 Total alkalinity (eq/kg)  =  1.203e-003
                       Total CO2 (mol/kg)  =  1.186e-003
                      Temperature (deg C)  =  25.000
                  Electrical balance (eq)  = -1.608e-004
 Percent error, 100*(Cat-|An|)/(Cat+|An|)  =  -2.00
                               Iterations  =  16
                                  Total H  = 1.110157e+002
                                  Total O  = 5.551105e+001

----------------------------Distribution of species----------------------------

                                                   Log       Log         Log 
   Species                 Molality    Activity  Molality  Activity     Gamma

   OH-                   2.394e-006  2.224e-006    -5.621    -5.653    -0.032
   H+                    4.812e-009  4.500e-009    -8.318    -8.347    -0.029
   H2O                   5.551e+001  9.999e-001     1.744    -0.000     0.000
C(-4)           7.154e-013
   CH4                   7.154e-013  7.162e-013   -12.145   -12.145     0.000
C(4)            1.186e-003
   HCO3-                 1.143e-003  1.064e-003    -2.942    -2.973    -0.031
   CO3-2                 1.477e-005  1.109e-005    -4.831    -4.955    -0.125
   CO2                   1.075e-005  1.077e-005    -4.968    -4.968     0.000
   CaCO3                 5.544e-006  5.550e-006    -5.256    -5.256     0.000
   CaHCO3+               4.364e-006  4.054e-006    -5.360    -5.392    -0.032
   MgHCO3+               1.982e-006  1.841e-006    -5.703    -5.735    -0.032
   FeCO3                 1.724e-006  1.726e-006    -5.763    -5.763     0.000
   MgCO3                 1.563e-006  1.565e-006    -5.806    -5.806     0.000
   NaHCO3                1.497e-006  1.499e-006    -5.825    -5.824     0.000
   FeHCO3+               7.432e-007  6.905e-007    -6.129    -6.161    -0.032
   NaCO3-                5.568e-007  5.173e-007    -6.254    -6.286    -0.032
   UO2(CO3)3-4           4.307e-016  1.327e-016   -15.366   -15.877    -0.511
   UO2(CO3)2-2           3.765e-016  2.805e-016   -15.424   -15.552    -0.128
   UO2CO3                1.078e-018  1.079e-018   -17.967   -17.967     0.000
   UO2(CO3)3-5           4.100e-024  6.510e-025   -23.387   -24.186    -0.799
   U(CO3)4-4             2.534e-025  7.803e-026   -24.596   -25.108    -0.511
   U(CO3)5-6             1.541e-028  1.089e-029   -27.812   -28.963    -1.151
   (UO2)3(CO3)6-6        0.000e+000  0.000e+000   -42.505   -43.656    -1.151
Ca              4.107e-004
   Ca+2                  3.983e-004  2.988e-004    -3.400    -3.525    -0.125
   CaCO3                 5.544e-006  5.550e-006    -5.256    -5.256     0.000
   CaHCO3+               4.364e-006  4.054e-006    -5.360    -5.392    -0.032
   CaSO4                 2.483e-006  2.486e-006    -5.605    -5.605     0.000
   CaOH+                 1.186e-008  1.102e-008    -7.926    -7.958    -0.032
   CaHSO4+               7.054e-014  6.553e-014   -13.152   -13.184    -0.032
Cl              2.822e-003
   Cl-                   2.822e-003  2.620e-003    -2.549    -2.582    -0.032
   FeCl+                 2.526e-008  2.347e-008    -7.598    -7.630    -0.032
   FeCl+2                2.615e-024  1.948e-024   -23.582   -23.710    -0.128
   UO2Cl+                9.518e-026  8.842e-026   -25.021   -25.053    -0.032
   FeCl2+                2.454e-026  2.280e-026   -25.610   -25.642    -0.032
   UO2Cl2                1.243e-029  1.244e-029   -28.906   -28.905     0.000
   FeCl3                 5.965e-030  5.972e-030   -29.224   -29.224     0.000
   UCl+3                 1.734e-039  8.939e-040   -38.761   -39.049    -0.288
Fe(2)           1.174e-005
   Fe+2                  8.712e-006  6.490e-006    -5.060    -5.188    -0.128
   FeCO3                 1.724e-006  1.726e-006    -5.763    -5.763     0.000
   FeHCO3+               7.432e-007  6.905e-007    -6.129    -6.161    -0.032
   FeOH+                 4.908e-007  4.560e-007    -6.309    -6.341    -0.032
   FeSO4                 4.807e-008  4.812e-008    -7.318    -7.318     0.000
   FeCl+                 2.526e-008  2.347e-008    -7.598    -7.630    -0.032
   Fe(OH)2               8.614e-010  8.623e-010    -9.065    -9.064     0.000
   Fe(OH)3-              7.662e-012  7.118e-012   -11.116   -11.148    -0.032
   FeHSO4+               1.532e-015  1.423e-015   -14.815   -14.847    -0.032
   Fe(HS)2               3.790e-018  3.794e-018   -17.421   -17.421     0.000
   Fe(HS)3-              1.139e-026  1.058e-026   -25.943   -25.975    -0.032
Fe(3)           9.334e-011
   Fe(OH)3               7.431e-011  7.439e-011   -10.129   -10.128     0.000
   Fe(OH)4-              1.623e-011  1.507e-011   -10.790   -10.822    -0.032
   Fe(OH)2+              2.798e-012  2.599e-012   -11.553   -11.585    -0.032
   FeOH+2                4.742e-017  3.533e-017   -16.324   -16.452    -0.128
   Fe+3                  4.777e-023  2.463e-023   -22.321   -22.609    -0.288
   FeSO4+                1.212e-023  1.126e-023   -22.917   -22.949    -0.032
   FeCl+2                2.615e-024  1.948e-024   -23.582   -23.710    -0.128
   FeCl2+                2.454e-026  2.280e-026   -25.610   -25.642    -0.032
   Fe(SO4)2-             1.105e-026  1.027e-026   -25.956   -25.988    -0.032
   FeCl3                 5.965e-030  5.972e-030   -29.224   -29.224     0.000
   FeHSO4+2              1.821e-031  1.357e-031   -30.740   -30.867    -0.128
   Fe2(OH)2+4            1.091e-031  3.359e-032   -30.962   -31.474    -0.511
   Fe3(OH)4+5            1.149e-040  0.000e+000   -39.940   -40.739    -0.799
H(0)            1.814e-011
   H2                    9.071e-012  9.081e-012   -11.042   -11.042     0.000
K               3.838e-005
   K+                    3.837e-005  3.562e-005    -4.416    -4.448    -0.032
   KSO4-                 1.123e-008  1.043e-008    -7.950    -7.982    -0.032
Mg              2.016e-004
   Mg+2                  1.965e-004  1.479e-004    -3.707    -3.830    -0.123
   MgHCO3+               1.982e-006  1.841e-006    -5.703    -5.735    -0.032
   MgCO3                 1.563e-006  1.565e-006    -5.806    -5.806     0.000
   MgSO4                 1.444e-006  1.446e-006    -5.840    -5.840     0.000
   MgOH+                 1.284e-007  1.193e-007    -6.891    -6.923    -0.032
Na              2.698e-003
   Na+                   2.695e-003  2.506e-003    -2.569    -2.601    -0.032
   NaHCO3                1.497e-006  1.499e-006    -5.825    -5.824     0.000
   NaSO4-                5.636e-007  5.236e-007    -6.249    -6.281    -0.032
   NaCO3-                5.568e-007  5.173e-007    -6.254    -6.286    -0.032
O(0)            0.000e+000
   O2                    0.000e+000  0.000e+000   -70.297   -70.296     0.000
S(-2)           4.802e-011
   HS-                   2.757e-011  2.561e-011   -10.560   -10.592    -0.032
   S5-2                  1.863e-012  1.446e-012   -11.730   -11.840    -0.110
   S4-2                  1.097e-012  8.437e-013   -11.960   -12.074    -0.114
   H2S                   1.007e-012  1.008e-012   -11.997   -11.997     0.000
   S6-2                  9.559e-013  7.485e-013   -12.020   -12.126    -0.106
   S-2                   9.227e-016  6.874e-016   -15.035   -15.163    -0.128
   S3-2                  3.905e-016  2.973e-016   -15.408   -15.527    -0.118
   S2-2                  2.234e-017  1.687e-017   -16.651   -16.773    -0.122
   Fe(HS)2               3.790e-018  3.794e-018   -17.421   -17.421     0.000
   Fe(HS)3-              1.139e-026  1.058e-026   -25.943   -25.975    -0.032
S(6)            6.025e-005
   SO4-2                 5.570e-005  4.169e-005    -4.254    -4.380    -0.126
   CaSO4                 2.483e-006  2.486e-006    -5.605    -5.605     0.000
   MgSO4                 1.444e-006  1.446e-006    -5.840    -5.840     0.000
   NaSO4-                5.636e-007  5.236e-007    -6.249    -6.281    -0.032
   FeSO4                 4.807e-008  4.812e-008    -7.318    -7.318     0.000
   KSO4-                 1.123e-008  1.043e-008    -7.950    -7.982    -0.032
   HSO4-                 1.964e-011  1.824e-011   -10.707   -10.739    -0.032
   CaHSO4+               7.054e-014  6.553e-014   -13.152   -13.184    -0.032
   FeHSO4+               1.532e-015  1.423e-015   -14.815   -14.847    -0.032
   FeSO4+                1.212e-023  1.126e-023   -22.917   -22.949    -0.032
   UO2SO4                1.343e-024  1.344e-024   -23.872   -23.872     0.000
   Fe(SO4)2-             1.105e-026  1.027e-026   -25.956   -25.988    -0.032
   UO2(SO4)2-2           7.351e-028  5.476e-028   -27.134   -27.262    -0.128
   FeHSO4+2              1.821e-031  1.357e-031   -30.740   -30.867    -0.128
   USO4+2                1.384e-036  1.031e-036   -35.859   -35.987    -0.128
   U(SO4)2               3.571e-037  3.575e-037   -36.447   -36.447     0.000
U(3)            0.000e+000
   U+3                   0.000e+000  0.000e+000   -42.294   -42.582    -0.288
U(4)            5.028e-014
   U(OH)4                5.028e-014  5.034e-014   -13.299   -13.298     0.000
   U(OH)3+               8.916e-019  8.283e-019   -18.050   -18.082    -0.032
   U(OH)2+2              2.314e-024  1.724e-024   -23.636   -23.764    -0.128
   U(CO3)4-4             2.534e-025  7.803e-026   -24.596   -25.108    -0.511
   U(CO3)5-6             1.541e-028  1.089e-029   -27.812   -28.963    -1.151
   UOH+3                 8.081e-031  4.167e-031   -30.093   -30.380    -0.288
   USO4+2                1.384e-036  1.031e-036   -35.859   -35.987    -0.128
   U(SO4)2               3.571e-037  3.575e-037   -36.447   -36.447     0.000
   U+4                   2.111e-038  6.502e-039   -37.675   -38.187    -0.511
   UCl+3                 1.734e-039  8.939e-040   -38.761   -39.049    -0.288
   U6(OH)15+9            0.000e+000  0.000e+000  -118.532  -121.121    -2.589
U(5)            1.910e-017
   UO2+                  1.910e-017  1.775e-017   -16.719   -16.751    -0.032
   UO2(CO3)3-5           4.100e-024  6.510e-025   -23.387   -24.186    -0.799
U(6)            8.254e-016
   UO2(CO3)3-4           4.307e-016  1.327e-016   -15.366   -15.877    -0.511
   UO2(CO3)2-2           3.765e-016  2.805e-016   -15.424   -15.552    -0.128
   UO2(OH)3-             1.700e-017  1.579e-017   -16.770   -16.802    -0.032
   UO2CO3                1.078e-018  1.079e-018   -17.967   -17.967     0.000
   UO2OH+                3.444e-020  3.199e-020   -19.463   -19.495    -0.032
   UO2(OH)4-2            7.465e-023  5.561e-023   -22.127   -22.255    -0.128
   UO2+2                 3.063e-023  2.282e-023   -22.514   -22.642    -0.128
   UO2SO4                1.343e-024  1.344e-024   -23.872   -23.872     0.000
   UO2Cl+                9.518e-026  8.842e-026   -25.021   -25.053    -0.032
   UO2(SO4)2-2           7.351e-028  5.476e-028   -27.134   -27.262    -0.128
   UO2Cl2                1.243e-029  1.244e-029   -28.906   -28.905     0.000
   (UO2)2(OH)2+2         8.278e-035  6.167e-035   -34.082   -34.210    -0.128
   (UO2)2OH+3            4.478e-040  2.309e-040   -39.349   -39.637    -0.288
   (UO2)3(OH)7-          0.000e+000  0.000e+000   -40.466   -40.498    -0.032
   (UO2)3(OH)5+          0.000e+000  0.000e+000   -41.710   -41.741    -0.032
   (UO2)3(CO3)6-6        0.000e+000  0.000e+000   -42.505   -43.656    -1.151
   (UO2)3(OH)4+2         0.000e+000  0.000e+000   -46.310   -46.438    -0.128
   (UO2)4(OH)7+          0.000e+000  0.000e+000   -54.008   -54.040    -0.032

------------------------------Saturation indices-------------------------------

	Phase               SI log IAP  log KT

	Anhydrite        -3.54   -7.90   -4.36  CaSO4
	Aragonite        -0.14   -8.48   -8.34  CaCO3
	Artinite         -5.52    4.08    9.60  MgCO3:Mg(OH)2:3H2O
	B-UO2(OH)2      -11.49   -5.95    5.54  UO2(OH)2
	Brucite          -3.98   12.86   16.84  Mg(OH)2
	Calcite           0.00   -8.48   -8.48  CaCO3
	CH4(g)           -9.28  -12.14   -2.86  CH4
	CO2(g)           -3.50   -4.97   -1.47  CO2
	Dolomite         -0.18  -17.27  -17.09  CaMg(CO3)2
	Dolomite(d)      -0.73  -17.27  -16.54  CaMg(CO3)2
	Epsomite         -6.07   -8.21   -2.14  MgSO4:7H2O
	Fe(OH)2.7Cl.3     2.19   -0.85   -3.04  Fe(OH)2.7Cl0.3
	Fe(OH)3(a)       -2.46    2.43    4.89  Fe(OH)3
	Fe3(OH)8         -3.85   16.37   20.22  Fe3(OH)8
	FeS(ppt)         -3.52   -7.43   -3.92  FeS
	Goethite          3.43    2.43   -1.00  FeOOH
	Graphite         -2.39    3.64    6.03  C
	Greigite        -14.35  -59.38  -45.03  Fe3S4
	Gummite         -16.35   -5.95   10.40  UO3
	Gypsum           -3.32   -7.90   -4.58  CaSO4:2H2O
	H2(g)            -7.89  -11.04   -3.15  H2
	H2O(g)           -1.51   -0.00    1.51  H2O
	H2S(g)          -11.00  -12.00   -1.00  H2S
	Halite           -6.76   -5.18    1.58  NaCl
	Hematite          8.87    4.86   -4.01  Fe2O3
	Huntite          -4.87  -34.84  -29.97  CaMg3(CO3)4
	Hydromagnesite  -13.52  -22.28   -8.76  Mg5(CO3)4(OH)2:4H2O
	Jarosite(ss)    -21.85  -31.68   -9.83  (K0.77Na0.03H0.2)Fe3(SO4)2(OH)6
	Jarosite-K      -21.74  -30.95   -9.21  KFe3(SO4)2(OH)6
	Jarosite-Na     -23.83  -29.11   -5.28  NaFe3(SO4)2(OH)6
	JarositeH       -29.46  -34.85   -5.39  (H3O)Fe3(SO4)2(OH)6
	Mackinawite      -2.78   -7.43   -4.65  FeS
	Maghemite        -1.52    4.86    6.39  Fe2O3
	Magnesite        -0.76   -8.79   -8.03  MgCO3
	Magnetite        12.63   16.37    3.74  Fe3O4
	Melanterite      -7.36   -9.57   -2.21  FeSO4:7H2O
	Mirabilite       -8.47   -9.58   -1.11  Na2SO4:10H2O
	Na4UO2(CO3)3    -31.62  -47.91  -16.29  Na4UO2(CO3)3
	Nahcolite        -5.03   -5.57   -0.55  NaHCO3
	Natron           -8.85  -10.16   -1.31  Na2CO3:10H2O
	Nesquehonite     -3.16   -8.79   -5.62  MgCO3:3H2O
	O2(g)           -67.40  -70.30   -2.89  O2
	Portlandite      -9.63   13.17   22.80  Ca(OH)2
	Pyrite            0.00  -18.48  -18.48  FeS2
	Rutherfordine   -13.15  -27.60  -14.45  UO2CO3
	Schoepite       -11.35   -5.95    5.40  UO2(OH)2:H2O
	Siderite          0.75  -10.14  -10.89  FeCO3
	Siderite(d)(3)    0.31  -10.14  -10.45  FeCO3
	Sulfur           -8.94  -23.96  -15.03  S
	Thenardite       -9.40   -9.58   -0.18  Na2SO4
	Thermonatrite   -10.28  -10.16    0.13  Na2CO3:H2O
	Trona           -14.94  -15.73   -0.80  NaHCO3:Na2CO3:2H2O
	U(OH)2SO4       -22.67  -25.87   -3.20  U(OH)2SO4
	U3O8(c)         -19.15    1.38   20.53  U3O8
	U4O9(c)          -7.92  -11.31   -3.38  U4O9
	UO2(a)           -4.90   -4.80    0.10  UO2
	UO3(gamma)      -13.67   -5.95    7.72  UO3
	Uraninite(c)     -0.00   -4.80   -4.80  UO2


Cell 2.

Using solution 2.	Solution after simulation 2.
Using pure phase assemblage 2.	Pp_Assemblage defined in simulation 2.

-------------------------------Phase assemblage--------------------------------

                                                      Moles in assemblage
Phase                  SI log IAP  log KT      Initial       Final       Delta

Calcite              Element not present.   0.000e+000           0  0.000e+000
CO2(g)              -3.50   -4.97   -1.47   1.000e+001  1.000e+001  3.553e-015
Graphite            -0.00    6.03    6.03   5.000e-007  5.000e-007 -3.607e-015
Pyrite               Element not present.   0.000e+000           0  0.000e+000
Uraninite(c)         Element not present.   0.000e+000           0  0.000e+000

-----------------------------Solution composition------------------------------

	Elements           Molality       Moles

	C                1.311e-005  1.311e-005
	Cl               2.821e-003  2.821e-003
	Fe               1.791e-007  1.791e-007
	Na               2.610e-003  2.610e-003

----------------------------Description of solution----------------------------

                                       pH  =   5.659      Charge balance
                                       pe  =  -2.311      Adjusted to redox equilibrium
                        Activity of water  =   1.000
                           Ionic strength  =  2.718e-003
                       Mass of water (kg)  =  1.000e+000
                 Total alkalinity (eq/kg)  =  1.020e-009
                       Total CO2 (mol/kg)  =  1.307e-005
                      Temperature (deg C)  =  25.000
                  Electrical balance (eq)  = -2.105e-004
 Percent error, 100*(Cat-|An|)/(Cat+|An|)  =  -3.87
                               Iterations  =   1
                                  Total H  = 1.110124e+002
                                  Total O  = 5.550624e+001

----------------------------Distribution of species----------------------------

                                                   Log       Log         Log 
   Species                 Molality    Activity  Molality  Activity     Gamma

   H+                    2.314e-006  2.195e-006    -5.636    -5.659    -0.023
   OH-                   4.829e-009  4.561e-009    -8.316    -8.341    -0.025
   H2O                   5.551e+001  9.999e-001     1.744    -0.000     0.000
C(-4)           4.338e-008
   CH4                   4.338e-008  4.341e-008    -7.363    -7.362     0.000
C(4)            1.307e-005
   CO2                   1.076e-005  1.077e-005    -4.968    -4.968     0.000
   HCO3-                 2.307e-006  2.182e-006    -5.637    -5.661    -0.024
   NaHCO3                3.024e-009  3.026e-009    -8.519    -8.519     0.000
   CO3-2                 5.831e-011  4.662e-011   -10.234   -10.331    -0.097
   FeHCO3+               3.280e-011  3.098e-011   -10.484   -10.509    -0.025
   NaCO3-                2.267e-012  2.141e-012   -11.645   -11.669    -0.025
   FeCO3                 1.587e-013  1.588e-013   -12.799   -12.799     0.000
Cl              2.821e-003
   Cl-                   2.821e-003  2.663e-003    -2.550    -2.575    -0.025
   FeCl+                 5.528e-010  5.220e-010    -9.257    -9.282    -0.025
   FeCl+2                6.706e-024  5.336e-024   -23.174   -23.273    -0.099
   FeCl2+                6.721e-026  6.348e-026   -25.173   -25.197    -0.025
   FeCl3                 1.689e-029  1.690e-029   -28.772   -28.772     0.000
Fe(2)           1.791e-007
   Fe+2                  1.785e-007  1.420e-007    -6.748    -6.848    -0.099
   FeCl+                 5.528e-010  5.220e-010    -9.257    -9.282    -0.025
   FeHCO3+               3.280e-011  3.098e-011   -10.484   -10.509    -0.025
   FeOH+                 2.166e-011  2.046e-011   -10.664   -10.689    -0.025
   FeCO3                 1.587e-013  1.588e-013   -12.799   -12.799     0.000
   Fe(OH)2               7.928e-017  7.933e-017   -16.101   -16.101     0.000
   Fe(OH)3-              1.422e-021  1.343e-021   -20.847   -20.872    -0.025
Fe(3)           3.315e-017
   Fe(OH)2+              3.117e-017  2.944e-017   -16.506   -16.531    -0.025
   Fe(OH)3               1.727e-018  1.728e-018   -17.763   -17.762     0.000
   FeOH+2                2.453e-019  1.952e-019   -18.610   -18.710    -0.099
   Fe(OH)4-              7.602e-022  7.179e-022   -21.119   -21.144    -0.025
   Fe+3                  1.110e-022  6.634e-023   -21.955   -22.178    -0.223
   FeCl+2                6.706e-024  5.336e-024   -23.174   -23.273    -0.099
   FeCl2+                6.721e-026  6.348e-026   -25.173   -25.197    -0.025
   FeCl3                 1.689e-029  1.690e-029   -28.772   -28.772     0.000
   Fe2(OH)2+4            2.558e-036  1.025e-036   -35.592   -35.989    -0.397
   Fe3(OH)4+5            0.000e+000  0.000e+000   -49.580   -50.200    -0.621
H(0)            2.848e-010
   H2                    1.424e-010  1.425e-010    -9.846    -9.846     0.000
Na              2.610e-003
   Na+                   2.610e-003  2.466e-003    -2.583    -2.608    -0.025
   NaHCO3                3.024e-009  3.026e-009    -8.519    -8.519     0.000
   NaCO3-                2.267e-012  2.141e-012   -11.645   -11.669    -0.025
O(0)            0.000e+000
   O2                    0.000e+000  0.000e+000   -72.688   -72.688     0.000

------------------------------Saturation indices-------------------------------

	Phase               SI log IAP  log KT

	CH4(g)           -4.50   -7.36   -2.86  CH4
	CO2(g)           -3.50   -4.97   -1.47  CO2
	Fe(OH)2.7Cl.3    -4.63   -7.67   -3.04  Fe(OH)2.7Cl0.3
	Fe(OH)3(a)      -10.09   -5.20    4.89  Fe(OH)3
	Fe3(OH)8        -26.16   -5.94   20.22  Fe3(OH)8
	Goethite         -4.20   -5.20   -1.00  FeOOH
	Graphite         -0.00    6.03    6.03  C
	H2(g)            -6.70   -9.85   -3.15  H2
	H2O(g)           -1.51   -0.00    1.51  H2O
	Halite           -6.76   -5.18    1.58  NaCl
	Hematite         -6.40  -10.40   -4.01  Fe2O3
	Maghemite       -16.79  -10.40    6.39  Fe2O3
	Magnetite        -9.67   -5.94    3.74  Fe3O4
	Nahcolite        -7.72   -8.27   -0.55  NaHCO3
	Natron          -14.24  -15.55   -1.31  Na2CO3:10H2O
	O2(g)           -69.80  -72.69   -2.89  O2
	Siderite         -6.29  -17.18  -10.89  FeCO3
	Siderite(d)(3)   -6.73  -17.18  -10.45  FeCO3
	Thermonatrite   -15.67  -15.55    0.13  Na2CO3:H2O
	Trona           -23.02  -23.82   -0.80  NaHCO3:Na2CO3:2H2O


Cell 3.

Using solution 3.	Solution after simulation 2.
Using pure phase assemblage 3.	Pp_Assemblage defined in simulation 2.

-------------------------------Phase assemblage--------------------------------

                                                      Moles in assemblage
Phase                  SI log IAP  log KT      Initial       Final       Delta

Calcite              Element not present.   0.000e+000           0  0.000e+000
CO2(g)              -3.50   -4.97   -1.47   1.000e+001  1.000e+001  3.553e-015
Graphite            -0.00    6.03    6.03   5.000e-007  5.000e-007 -3.607e-015
Pyrite               Element not present.   0.000e+000           0  0.000e+000
Uraninite(c)         Element not present.   0.000e+000           0  0.000e+000

-----------------------------Solution composition------------------------------

	Elements           Molality       Moles

	C                1.311e-005  1.311e-005
	Cl               2.821e-003  2.821e-003
	Fe               1.791e-007  1.791e-007
	Na               2.610e-003  2.610e-003

----------------------------Description of solution----------------------------

                                       pH  =   5.659      Charge balance
                                       pe  =  -2.311      Adjusted to redox equilibrium
                        Activity of water  =   1.000
                           Ionic strength  =  2.718e-003
                       Mass of water (kg)  =  1.000e+000
                 Total alkalinity (eq/kg)  =  1.020e-009
                       Total CO2 (mol/kg)  =  1.307e-005
                      Temperature (deg C)  =  25.000
                  Electrical balance (eq)  = -2.105e-004
 Percent error, 100*(Cat-|An|)/(Cat+|An|)  =  -3.87
                               Iterations  =   1
                                  Total H  = 1.110124e+002
                                  Total O  = 5.550624e+001

----------------------------Distribution of species----------------------------

                                                   Log       Log         Log 
   Species                 Molality    Activity  Molality  Activity     Gamma

   H+                    2.314e-006  2.195e-006    -5.636    -5.659    -0.023
   OH-                   4.829e-009  4.561e-009    -8.316    -8.341    -0.025
   H2O                   5.551e+001  9.999e-001     1.744    -0.000     0.000
C(-4)           4.338e-008
   CH4                   4.338e-008  4.341e-008    -7.363    -7.362     0.000
C(4)            1.307e-005
   CO2                   1.076e-005  1.077e-005    -4.968    -4.968     0.000
   HCO3-                 2.307e-006  2.182e-006    -5.637    -5.661    -0.024
   NaHCO3                3.024e-009  3.026e-009    -8.519    -8.519     0.000
   CO3-2                 5.831e-011  4.662e-011   -10.234   -10.331    -0.097
   FeHCO3+               3.280e-011  3.098e-011   -10.484   -10.509    -0.025
   NaCO3-                2.267e-012  2.141e-012   -11.645   -11.669    -0.025
   FeCO3                 1.587e-013  1.588e-013   -12.799   -12.799     0.000
Cl              2.821e-003
   Cl-                   2.821e-003  2.663e-003    -2.550    -2.575    -0.025
   FeCl+                 5.528e-010  5.220e-010    -9.257    -9.282    -0.025
   FeCl+2                6.706e-024  5.336e-024   -23.174   -23.273    -0.099
   FeCl2+                6.721e-026  6.348e-026   -25.173   -25.197    -0.025
   FeCl3                 1.689e-029  1.690e-029   -28.772   -28.772     0.000
Fe(2)           1.791e-007
   Fe+2                  1.785e-007  1.420e-007    -6.748    -6.848    -0.099
   FeCl+                 5.528e-010  5.220e-010    -9.257    -9.282    -0.025
   FeHCO3+               3.280e-011  3.098e-011   -10.484   -10.509    -0.025
   FeOH+                 2.166e-011  2.046e-011   -10.664   -10.689    -0.025
   FeCO3                 1.587e-013  1.588e-013   -12.799   -12.799     0.000
   Fe(OH)2               7.928e-017  7.933e-017   -16.101   -16.101     0.000
   Fe(OH)3-              1.422e-021  1.343e-021   -20.847   -20.872    -0.025
Fe(3)           3.315e-017
   Fe(OH)2+              3.117e-017  2.944e-017   -16.506   -16.531    -0.025
   Fe(OH)3               1.727e-018  1.728e-018   -17.763   -17.762     0.000
   FeOH+2                2.453e-019  1.952e-019   -18.610   -18.710    -0.099
   Fe(OH)4-              7.602e-022  7.179e-022   -21.119   -21.144    -0.025
   Fe+3                  1.110e-022  6.634e-023   -21.955   -22.178    -0.223
   FeCl+2                6.706e-024  5.336e-024   -23.174   -23.273    -0.099
   FeCl2+                6.721e-026  6.348e-026   -25.173   -25.197    -0.025
   FeCl3                 1.689e-029  1.690e-029   -28.772   -28.772     0.000
   Fe2(OH)2+4            2.558e-036  1.025e-036   -35.592   -35.989    -0.397
   Fe3(OH)4+5            0.000e+000  0.000e+000   -49.580   -50.200    -0.621
H(0)            2.848e-010
   H2                    1.424e-010  1.425e-010    -9.846    -9.846     0.000
Na              2.610e-003
   Na+                   2.610e-003  2.466e-003    -2.583    -2.608    -0.025
   NaHCO3                3.024e-009  3.026e-009    -8.519    -8.519     0.000
   NaCO3-                2.267e-012  2.141e-012   -11.645   -11.669    -0.025
O(0)            0.000e+000
   O2                    0.000e+000  0.000e+000   -72.688   -72.688     0.000

------------------------------Saturation indices-------------------------------

	Phase               SI log IAP  log KT

	CH4(g)           -4.50   -7.36   -2.86  CH4
	CO2(g)           -3.50   -4.97   -1.47  CO2
	Fe(OH)2.7Cl.3    -4.63   -7.67   -3.04  Fe(OH)2.7Cl0.3
	Fe(OH)3(a)      -10.09   -5.20    4.89  Fe(OH)3
	Fe3(OH)8        -26.16   -5.94   20.22  Fe3(OH)8
	Goethite         -4.20   -5.20   -1.00  FeOOH
	Graphite         -0.00    6.03    6.03  C
	H2(g)            -6.70   -9.85   -3.15  H2
	H2O(g)           -1.51   -0.00    1.51  H2O
	Halite           -6.76   -5.18    1.58  NaCl
	Hematite         -6.40  -10.40   -4.01  Fe2O3
	Maghemite       -16.79  -10.40    6.39  Fe2O3
	Magnetite        -9.67   -5.94    3.74  Fe3O4
	Nahcolite        -7.72   -8.27   -0.55  NaHCO3
	Natron          -14.24  -15.55   -1.31  Na2CO3:10H2O
	O2(g)           -69.80  -72.69   -2.89  O2
	Siderite         -6.29  -17.18  -10.89  FeCO3
	Siderite(d)(3)   -6.73  -17.18  -10.45  FeCO3
	Thermonatrite   -15.67  -15.55    0.13  Na2CO3:H2O
	Trona           -23.02  -23.82   -0.80  NaHCO3:Na2CO3:2H2O


Cell 4.

Using solution 4.	Solution after simulation 2.
Using pure phase assemblage 4.	Pp_Assemblage defined in simulation 2.

-------------------------------Phase assemblage--------------------------------

                                                      Moles in assemblage
Phase                  SI log IAP  log KT      Initial       Final       Delta

Calcite              Element not present.   0.000e+000           0  0.000e+000
CO2(g)              -3.50   -4.97   -1.47   1.000e+001  1.000e+001  3.553e-015
Graphite            -0.00    6.03    6.03   5.000e-007  5.000e-007 -3.607e-015
Pyrite               Element not present.   0.000e+000           0  0.000e+000
Uraninite(c)         Element not present.   0.000e+000           0  0.000e+000

-----------------------------Solution composition------------------------------

	Elements           Molality       Moles

	C                1.311e-005  1.311e-005
	Cl               2.821e-003  2.821e-003
	Fe               1.791e-007  1.791e-007
	Na               2.610e-003  2.610e-003

----------------------------Description of solution----------------------------

                                       pH  =   5.659      Charge balance
                                       pe  =  -2.311      Adjusted to redox equilibrium
                        Activity of water  =   1.000
                           Ionic strength  =  2.718e-003
                       Mass of water (kg)  =  1.000e+000
                 Total alkalinity (eq/kg)  =  1.020e-009
                       Total CO2 (mol/kg)  =  1.307e-005
                      Temperature (deg C)  =  25.000
                  Electrical balance (eq)  = -2.105e-004
 Percent error, 100*(Cat-|An|)/(Cat+|An|)  =  -3.87
                               Iterations  =   1
                                  Total H  = 1.110124e+002
                                  Total O  = 5.550624e+001

----------------------------Distribution of species----------------------------

                                                   Log       Log         Log 
   Species                 Molality    Activity  Molality  Activity     Gamma

   H+                    2.314e-006  2.195e-006    -5.636    -5.659    -0.023
   OH-                   4.829e-009  4.561e-009    -8.316    -8.341    -0.025
   H2O                   5.551e+001  9.999e-001     1.744    -0.000     0.000
C(-4)           4.338e-008
   CH4                   4.338e-008  4.341e-008    -7.363    -7.362     0.000
C(4)            1.307e-005
   CO2                   1.076e-005  1.077e-005    -4.968    -4.968     0.000
   HCO3-                 2.307e-006  2.182e-006    -5.637    -5.661    -0.024
   NaHCO3                3.024e-009  3.026e-009    -8.519    -8.519     0.000
   CO3-2                 5.831e-011  4.662e-011   -10.234   -10.331    -0.097
   FeHCO3+               3.280e-011  3.098e-011   -10.484   -10.509    -0.025
   NaCO3-                2.267e-012  2.141e-012   -11.645   -11.669    -0.025
   FeCO3                 1.587e-013  1.588e-013   -12.799   -12.799     0.000
Cl              2.821e-003
   Cl-                   2.821e-003  2.663e-003    -2.550    -2.575    -0.025
   FeCl+                 5.528e-010  5.220e-010    -9.257    -9.282    -0.025
   FeCl+2                6.706e-024  5.336e-024   -23.174   -23.273    -0.099
   FeCl2+                6.721e-026  6.348e-026   -25.173   -25.197    -0.025
   FeCl3                 1.689e-029  1.690e-029   -28.772   -28.772     0.000
Fe(2)           1.791e-007
   Fe+2                  1.785e-007  1.420e-007    -6.748    -6.848    -0.099
   FeCl+                 5.528e-010  5.220e-010    -9.257    -9.282    -0.025
   FeHCO3+               3.280e-011  3.098e-011   -10.484   -10.509    -0.025
   FeOH+                 2.166e-011  2.046e-011   -10.664   -10.689    -0.025
   FeCO3                 1.587e-013  1.588e-013   -12.799   -12.799     0.000
   Fe(OH)2               7.928e-017  7.933e-017   -16.101   -16.101     0.000
   Fe(OH)3-              1.422e-021  1.343e-021   -20.847   -20.872    -0.025
Fe(3)           3.315e-017
   Fe(OH)2+              3.117e-017  2.944e-017   -16.506   -16.531    -0.025
   Fe(OH)3               1.727e-018  1.728e-018   -17.763   -17.762     0.000
   FeOH+2                2.453e-019  1.952e-019   -18.610   -18.710    -0.099
   Fe(OH)4-              7.602e-022  7.179e-022   -21.119   -21.144    -0.025
   Fe+3                  1.110e-022  6.634e-023   -21.955   -22.178    -0.223
   FeCl+2                6.706e-024  5.336e-024   -23.174   -23.273    -0.099
   FeCl2+                6.721e-026  6.348e-026   -25.173   -25.197    -0.025
   FeCl3                 1.689e-029  1.690e-029   -28.772   -28.772     0.000
   Fe2(OH)2+4            2.558e-036  1.025e-036   -35.592   -35.989    -0.397
   Fe3(OH)4+5            0.000e+000  0.000e+000   -49.580   -50.200    -0.621
H(0)            2.848e-010
   H2                    1.424e-010  1.425e-010    -9.846    -9.846     0.000
Na              2.610e-003
   Na+                   2.610e-003  2.466e-003    -2.583    -2.608    -0.025
   NaHCO3                3.024e-009  3.026e-009    -8.519    -8.519     0.000
   NaCO3-                2.267e-012  2.141e-012   -11.645   -11.669    -0.025
O(0)            0.000e+000
   O2                    0.000e+000  0.000e+000   -72.688   -72.688     0.000

------------------------------Saturation indices-------------------------------

	Phase               SI log IAP  log KT

	CH4(g)           -4.50   -7.36   -2.86  CH4
	CO2(g)           -3.50   -4.97   -1.47  CO2
	Fe(OH)2.7Cl.3    -4.63   -7.67   -3.04  Fe(OH)2.7Cl0.3
	Fe(OH)3(a)      -10.09   -5.20    4.89  Fe(OH)3
	Fe3(OH)8        -26.16   -5.94   20.22  Fe3(OH)8
	Goethite         -4.20   -5.20   -1.00  FeOOH
	Graphite         -0.00    6.03    6.03  C
	H2(g)            -6.70   -9.85   -3.15  H2
	H2O(g)           -1.51   -0.00    1.51  H2O
	Halite           -6.76   -5.18    1.58  NaCl
	Hematite         -6.40  -10.40   -4.01  Fe2O3
	Maghemite       -16.79  -10.40    6.39  Fe2O3
	Magnetite        -9.67   -5.94    3.74  Fe3O4
	Nahcolite        -7.72   -8.27   -0.55  NaHCO3
	Natron          -14.24  -15.55   -1.31  Na2CO3:10H2O
	O2(g)           -69.80  -72.69   -2.89  O2
	Siderite         -6.29  -17.18  -10.89  FeCO3
	Siderite(d)(3)   -6.73  -17.18  -10.45  FeCO3
	Thermonatrite   -15.67  -15.55    0.13  Na2CO3:H2O
	Trona           -23.02  -23.82   -0.80  NaHCO3:Na2CO3:2H2O


Cell 5.

Using solution 5.	Solution after simulation 2.
Using pure phase assemblage 5.	Pp_Assemblage defined in simulation 2.

-------------------------------Phase assemblage--------------------------------

                                                      Moles in assemblage
Phase                  SI log IAP  log KT      Initial       Final       Delta

Calcite              Element not present.   0.000e+000           0  0.000e+000
CO2(g)              -3.50   -4.97   -1.47   1.000e+001  1.000e+001  3.553e-015
Graphite            -0.00    6.03    6.03   5.000e-007  5.000e-007 -3.607e-015
Pyrite               Element not present.   0.000e+000           0  0.000e+000
Uraninite(c)         Element not present.   0.000e+000           0  0.000e+000

-----------------------------Solution composition------------------------------

	Elements           Molality       Moles

	C                1.311e-005  1.311e-005
	Cl               2.821e-003  2.821e-003
	Fe               1.791e-007  1.791e-007
	Na               2.610e-003  2.610e-003

----------------------------Description of solution----------------------------

                                       pH  =   5.659      Charge balance
                                       pe  =  -2.311      Adjusted to redox equilibrium
                        Activity of water  =   1.000
                           Ionic strength  =  2.718e-003
                       Mass of water (kg)  =  1.000e+000
                 Total alkalinity (eq/kg)  =  1.020e-009
                       Total CO2 (mol/kg)  =  1.307e-005
                      Temperature (deg C)  =  25.000
                  Electrical balance (eq)  = -2.105e-004
 Percent error, 100*(Cat-|An|)/(Cat+|An|)  =  -3.87
                               Iterations  =   1
                                  Total H  = 1.110124e+002
                                  Total O  = 5.550624e+001

----------------------------Distribution of species----------------------------

                                                   Log       Log         Log 
   Species                 Molality    Activity  Molality  Activity     Gamma

   H+                    2.314e-006  2.195e-006    -5.636    -5.659    -0.023
   OH-                   4.829e-009  4.561e-009    -8.316    -8.341    -0.025
   H2O                   5.551e+001  9.999e-001     1.744    -0.000     0.000
C(-4)           4.338e-008
   CH4                   4.338e-008  4.341e-008    -7.363    -7.362     0.000
C(4)            1.307e-005
   CO2                   1.076e-005  1.077e-005    -4.968    -4.968     0.000
   HCO3-                 2.307e-006  2.182e-006    -5.637    -5.661    -0.024
   NaHCO3                3.024e-009  3.026e-009    -8.519    -8.519     0.000
   CO3-2                 5.831e-011  4.662e-011   -10.234   -10.331    -0.097
   FeHCO3+               3.280e-011  3.098e-011   -10.484   -10.509    -0.025
   NaCO3-                2.267e-012  2.141e-012   -11.645   -11.669    -0.025
   FeCO3                 1.587e-013  1.588e-013   -12.799   -12.799     0.000
Cl              2.821e-003
   Cl-                   2.821e-003  2.663e-003    -2.550    -2.575    -0.025
   FeCl+                 5.528e-010  5.220e-010    -9.257    -9.282    -0.025
   FeCl+2                6.706e-024  5.336e-024   -23.174   -23.273    -0.099
   FeCl2+                6.721e-026  6.348e-026   -25.173   -25.197    -0.025
   FeCl3                 1.689e-029  1.690e-029   -28.772   -28.772     0.000
Fe(2)           1.791e-007
   Fe+2                  1.785e-007  1.420e-007    -6.748    -6.848    -0.099
   FeCl+                 5.528e-010  5.220e-010    -9.257    -9.282    -0.025
   FeHCO3+               3.280e-011  3.098e-011   -10.484   -10.509    -0.025
   FeOH+                 2.166e-011  2.046e-011   -10.664   -10.689    -0.025
   FeCO3                 1.587e-013  1.588e-013   -12.799   -12.799     0.000
   Fe(OH)2               7.928e-017  7.933e-017   -16.101   -16.101     0.000
   Fe(OH)3-              1.422e-021  1.343e-021   -20.847   -20.872    -0.025
Fe(3)           3.315e-017
   Fe(OH)2+              3.117e-017  2.944e-017   -16.506   -16.531    -0.025
   Fe(OH)3               1.727e-018  1.728e-018   -17.763   -17.762     0.000
   FeOH+2                2.453e-019  1.952e-019   -18.610   -18.710    -0.099
   Fe(OH)4-              7.602e-022  7.179e-022   -21.119   -21.144    -0.025
   Fe+3                  1.110e-022  6.634e-023   -21.955   -22.178    -0.223
   FeCl+2                6.706e-024  5.336e-024   -23.174   -23.273    -0.099
   FeCl2+                6.721e-026  6.348e-026   -25.173   -25.197    -0.025
   FeCl3                 1.689e-029  1.690e-029   -28.772   -28.772     0.000
   Fe2(OH)2+4            2.558e-036  1.025e-036   -35.592   -35.989    -0.397
   Fe3(OH)4+5            0.000e+000  0.000e+000   -49.580   -50.200    -0.621
H(0)            2.848e-010
   H2                    1.424e-010  1.425e-010    -9.846    -9.846     0.000
Na              2.610e-003
   Na+                   2.610e-003  2.466e-003    -2.583    -2.608    -0.025
   NaHCO3                3.024e-009  3.026e-009    -8.519    -8.519     0.000
   NaCO3-                2.267e-012  2.141e-012   -11.645   -11.669    -0.025
O(0)            0.000e+000
   O2                    0.000e+000  0.000e+000   -72.688   -72.688     0.000

------------------------------Saturation indices-------------------------------

	Phase               SI log IAP  log KT

	CH4(g)           -4.50   -7.36   -2.86  CH4
	CO2(g)           -3.50   -4.97   -1.47  CO2
	Fe(OH)2.7Cl.3    -4.63   -7.67   -3.04  Fe(OH)2.7Cl0.3
	Fe(OH)3(a)      -10.09   -5.20    4.89  Fe(OH)3
	Fe3(OH)8        -26.16   -5.94   20.22  Fe3(OH)8
	Goethite         -4.20   -5.20   -1.00  FeOOH
	Graphite         -0.00    6.03    6.03  C
	H2(g)            -6.70   -9.85   -3.15  H2
	H2O(g)           -1.51   -0.00    1.51  H2O
	Halite           -6.76   -5.18    1.58  NaCl
	Hematite         -6.40  -10.40   -4.01  Fe2O3
	Maghemite       -16.79  -10.40    6.39  Fe2O3
	Magnetite        -9.67   -5.94    3.74  Fe3O4
	Nahcolite        -7.72   -8.27   -0.55  NaHCO3
	Natron          -14.24  -15.55   -1.31  Na2CO3:10H2O
	O2(g)           -69.80  -72.69   -2.89  O2
	Siderite         -6.29  -17.18  -10.89  FeCO3
	Siderite(d)(3)   -6.73  -17.18  -10.45  FeCO3
	Thermonatrite   -15.67  -15.55    0.13  Na2CO3:H2O
[...]
   UO2(SO4)2-2           7.445e-028  5.546e-028   -27.128   -27.256    -0.128
   UO2Cl2                1.247e-029  1.248e-029   -28.904   -28.904     0.000
   (UO2)2(OH)2+2         8.332e-035  6.207e-035   -34.079   -34.207    -0.128
   (UO2)2OH+3            4.507e-040  2.324e-040   -39.346   -39.634    -0.288
   (UO2)3(OH)7-          0.000e+000  0.000e+000   -40.462   -40.494    -0.032
   (UO2)3(OH)5+          0.000e+000  0.000e+000   -41.705   -41.737    -0.032
   (UO2)3(CO3)6-6        0.000e+000  0.000e+000   -42.502   -43.652    -1.151
   (UO2)3(OH)4+2         0.000e+000  0.000e+000   -46.306   -46.434    -0.128
   (UO2)4(OH)7+          0.000e+000  0.000e+000   -54.002   -54.034    -0.032

------------------------------Saturation indices-------------------------------

	Phase               SI log IAP  log KT

	Anhydrite        -3.54   -7.90   -4.36  CaSO4
	Aragonite        -0.14   -8.48   -8.34  CaCO3
	Artinite         -5.52    4.08    9.60  MgCO3:Mg(OH)2:3H2O
	B-UO2(OH)2      -11.49   -5.95    5.54  UO2(OH)2
	Brucite          -3.98   12.86   16.84  Mg(OH)2
	Calcite           0.00   -8.48   -8.48  CaCO3
	CH4(g)           -9.29  -12.15   -2.86  CH4
	CO2(g)           -3.50   -4.97   -1.47  CO2
	Dolomite         -0.18  -17.27  -17.09  CaMg(CO3)2
	Dolomite(d)      -0.73  -17.27  -16.54  CaMg(CO3)2
	Epsomite         -6.07   -8.21   -2.14  MgSO4:7H2O
	Fe(OH)2.7Cl.3     2.20   -0.84   -3.04  Fe(OH)2.7Cl0.3
	Fe(OH)3(a)       -2.45    2.44    4.89  Fe(OH)3
	Fe3(OH)8         -3.84   16.39   20.22  Fe3(OH)8
	FeS(ppt)         -3.52   -7.43   -3.92  FeS
	Goethite          3.44    2.44   -1.00  FeOOH
	Graphite         -2.39    3.64    6.03  C
	Greigite        -14.35  -59.38  -45.03  Fe3S4
	Gummite         -16.35   -5.95   10.40  UO3
	Gypsum           -3.32   -7.90   -4.58  CaSO4:2H2O
	H2(g)            -7.89  -11.04   -3.15  H2
	H2O(g)           -1.51   -0.00    1.51  H2O
	H2S(g)          -11.00  -12.00   -1.00  H2S
	Halite           -6.76   -5.18    1.58  NaCl
	Hematite          8.88    4.87   -4.01  Fe2O3
	Huntite          -4.87  -34.84  -29.97  CaMg3(CO3)4
	Hydromagnesite  -13.52  -22.28   -8.76  Mg5(CO3)4(OH)2:4H2O
	Jarosite(ss)    -21.83  -31.66   -9.83  (K0.77Na0.03H0.2)Fe3(SO4)2(OH)6
	Jarosite-K      -21.72  -30.93   -9.21  KFe3(SO4)2(OH)6
	Jarosite-Na     -23.80  -29.08   -5.28  NaFe3(SO4)2(OH)6
	JarositeH       -29.44  -34.83   -5.39  (H3O)Fe3(SO4)2(OH)6
	Mackinawite      -2.78   -7.43   -4.65  FeS
	Maghemite        -1.51    4.87    6.39  Fe2O3
	Magnesite        -0.76   -8.79   -8.03  MgCO3
	Magnetite        12.65   16.39    3.74  Fe3O4
	Melanterite      -7.35   -9.56   -2.21  FeSO4:7H2O
	Mirabilite       -8.47   -9.58   -1.11  Na2SO4:10H2O
	Na4UO2(CO3)3    -31.62  -47.91  -16.29  Na4UO2(CO3)3
	Nahcolite        -5.03   -5.57   -0.55  NaHCO3
	Natron           -8.85  -10.16   -1.31  Na2CO3:10H2O
	Nesquehonite     -3.16   -8.79   -5.62  MgCO3:3H2O
	O2(g)           -67.40  -70.29   -2.89  O2
	Portlandite      -9.63   13.17   22.80  Ca(OH)2
	Pyrite            0.00  -18.48  -18.48  FeS2
	Rutherfordine   -13.15  -27.60  -14.45  UO2CO3
	Schoepite       -11.35   -5.95    5.40  UO2(OH)2:H2O
	Siderite          0.75  -10.14  -10.89  FeCO3
	Siderite(d)(3)    0.31  -10.14  -10.45  FeCO3
	Sulfur           -8.94  -23.97  -15.03  S
	Thenardite       -9.40   -9.58   -0.18  Na2SO4
	Thermonatrite   -10.28  -10.16    0.13  Na2CO3:H2O
	Trona           -14.94  -15.73   -0.80  NaHCO3:Na2CO3:2H2O
	U(OH)2SO4       -22.67  -25.87   -3.20  U(OH)2SO4
	U3O8(c)         -19.14    1.39   20.53  U3O8
	U4O9(c)          -7.92  -11.31   -3.38  U4O9
	UO2(a)           -4.90   -4.80    0.10  UO2
	UO3(gamma)      -13.67   -5.95    7.72  UO3
	Uraninite(c)      0.00   -4.80   -4.80  UO2


Cell 7.

Using solution 7.	Solution after simulation 3.
Using pure phase assemblage 7.	Pure-phase assemblage after simulation 3.

-------------------------------Phase assemblage--------------------------------

                                                      Moles in assemblage
Phase                  SI log IAP  log KT      Initial       Final       Delta

Calcite              0.00   -8.48   -8.48   2.157e-005  2.157e-005  1.165e-015
CO2(g)              -3.50   -4.97   -1.47   1.000e+001  1.000e+001 -1.776e-015
Graphite            -2.39    3.64    6.03   0.000e+000           0  0.000e+000
Pyrite               0.00  -18.48  -18.48   2.675e-005  2.675e-005  1.532e-015
Uraninite(c)         0.00   -4.80   -4.80   0.000e+000           0  0.000e+000

-----------------------------Solution composition------------------------------

	Elements           Molality       Moles

	C                1.186e-003  1.186e-003
	Ca               4.108e-004  4.108e-004
	Cl               2.822e-003  2.822e-003
	Fe               1.189e-005  1.189e-005
	K                3.838e-005  3.838e-005
	Mg               2.016e-004  2.016e-004
	Na               2.698e-003  2.698e-003
	S                6.053e-005  6.053e-005
	U                5.113e-014  5.113e-014

----------------------------Description of solution----------------------------

                                       pH  =   8.347      Charge balance
                                       pe  =  -4.400      Adjusted to redox equilibrium
                        Activity of water  =   1.000
                           Ionic strength  =  4.704e-003
                       Mass of water (kg)  =  1.000e+000
                 Total alkalinity (eq/kg)  =  1.203e-003
                       Total CO2 (mol/kg)  =  1.186e-003
                      Temperature (deg C)  =  25.000
                  Electrical balance (eq)  = -1.608e-004
 Percent error, 100*(Cat-|An|)/(Cat+|An|)  =  -2.00
                               Iterations  =   1
                                  Total H  = 1.110157e+002
                                  Total O  = 5.551106e+001

----------------------------Distribution of species----------------------------

                                                   Log       Log         Log 
   Species                 Molality    Activity  Molality  Activity     Gamma

   OH-                   2.394e-006  2.224e-006    -5.621    -5.653    -0.032
   H+                    4.812e-009  4.501e-009    -8.318    -8.347    -0.029
   H2O                   5.551e+001  9.999e-001     1.744    -0.000     0.000
C(-4)           7.066e-013
   CH4                   7.066e-013  7.074e-013   -12.151   -12.150     0.000
C(4)            1.186e-003
   HCO3-                 1.143e-003  1.064e-003    -2.942    -2.973    -0.031
   CO3-2                 1.477e-005  1.108e-005    -4.831    -4.955    -0.125
   CO2                   1.075e-005  1.077e-005    -4.968    -4.968     0.000
   CaCO3                 5.544e-006  5.550e-006    -5.256    -5.256     0.000
   CaHCO3+               4.365e-006  4.055e-006    -5.360    -5.392    -0.032
   MgHCO3+               1.982e-006  1.841e-006    -5.703    -5.735    -0.032
   FeCO3                 1.745e-006  1.747e-006    -5.758    -5.758     0.000
   MgCO3                 1.563e-006  1.564e-006    -5.806    -5.806     0.000
   NaHCO3                1.497e-006  1.499e-006    -5.825    -5.824     0.000
   FeHCO3+               7.522e-007  6.988e-007    -6.124    -6.156    -0.032
   NaCO3-                5.567e-007  5.172e-007    -6.254    -6.286    -0.032
   UO2(CO3)3-4           4.319e-016  1.330e-016   -15.365   -15.876    -0.512
   UO2(CO3)2-2           3.776e-016  2.813e-016   -15.423   -15.551    -0.128
   UO2CO3                1.081e-018  1.083e-018   -17.966   -17.966     0.000
   UO2(CO3)3-5           4.104e-024  6.516e-025   -23.387   -24.186    -0.799
   U(CO3)4-4             2.533e-025  7.800e-026   -24.596   -25.108    -0.512
   U(CO3)5-6             1.541e-028  1.088e-029   -27.812   -28.963    -1.151
   (UO2)3(CO3)6-6        0.000e+000  0.000e+000   -42.502   -43.652    -1.151
Ca              4.108e-004
   Ca+2                  3.984e-004  2.989e-004    -3.400    -3.525    -0.125
   CaCO3                 5.544e-006  5.550e-006    -5.256    -5.256     0.000
   CaHCO3+               4.365e-006  4.055e-006    -5.360    -5.392    -0.032
   CaSO4                 2.495e-006  2.498e-006    -5.603    -5.602     0.000
   CaOH+                 1.186e-008  1.102e-008    -7.926    -7.958    -0.032
   CaHSO4+               7.089e-014  6.586e-014   -13.149   -13.181    -0.032
Cl              2.822e-003
   Cl-                   2.822e-003  2.620e-003    -2.549    -2.582    -0.032
   FeCl+                 2.557e-008  2.375e-008    -7.592    -7.624    -0.032
   FeCl+2                2.652e-024  1.975e-024   -23.577   -23.704    -0.128
   UO2Cl+                9.549e-026  8.872e-026   -25.020   -25.052    -0.032
   FeCl2+                2.488e-026  2.311e-026   -25.604   -25.636    -0.032
   UO2Cl2                1.247e-029  1.248e-029   -28.904   -28.904     0.000
   FeCl3                 6.048e-030  6.054e-030   -29.218   -29.218     0.000
   UCl+3                 1.735e-039  8.943e-040   -38.761   -39.049    -0.288
Fe(2)           1.189e-005
   Fe+2                  8.818e-006  6.569e-006    -5.055    -5.182    -0.128
   FeCO3                 1.745e-006  1.747e-006    -5.758    -5.758     0.000
   FeHCO3+               7.522e-007  6.988e-007    -6.124    -6.156    -0.032
   FeOH+                 4.967e-007  4.615e-007    -6.304    -6.336    -0.032
   FeSO4                 4.888e-008  4.894e-008    -7.311    -7.310     0.000
   FeCl+                 2.557e-008  2.375e-008    -7.592    -7.624    -0.032
   Fe(OH)2               8.717e-010  8.726e-010    -9.060    -9.059     0.000
   Fe(OH)3-              7.753e-012  7.202e-012   -11.111   -11.143    -0.032
   FeHSO4+               1.558e-015  1.448e-015   -14.807   -14.839    -0.032
   Fe(HS)2               3.779e-018  3.783e-018   -17.423   -17.422     0.000
   Fe(HS)3-              1.127e-026  1.047e-026   -25.948   -25.980    -0.032
Fe(3)           9.460e-011
   Fe(OH)3               7.532e-011  7.540e-011   -10.123   -10.123     0.000
   Fe(OH)4-              1.644e-011  1.528e-011   -10.784   -10.816    -0.032
   Fe(OH)2+              2.836e-012  2.635e-012   -11.547   -11.579    -0.032
   FeOH+2                4.808e-017  3.581e-017   -16.318   -16.446    -0.128
   Fe+3                  4.843e-023  2.497e-023   -22.315   -22.603    -0.288
   FeSO4+                1.234e-023  1.147e-023   -22.909   -22.940    -0.032
   FeCl+2                2.652e-024  1.975e-024   -23.577   -23.704    -0.128
   FeCl2+                2.488e-026  2.311e-026   -25.604   -25.636    -0.032
   Fe(SO4)2-             1.131e-026  1.051e-026   -25.946   -25.978    -0.032
   FeCl3                 6.048e-030  6.054e-030   -29.218   -29.218     0.000
   FeHSO4+2              1.855e-031  1.382e-031   -30.732   -30.859    -0.128
   Fe2(OH)2+4            1.121e-031  3.452e-032   -30.950   -31.462    -0.512
   Fe3(OH)4+5            1.197e-040  0.000e+000   -39.922   -40.721    -0.799
H(0)            1.809e-011
   H2                    9.043e-012  9.053e-012   -11.044   -11.043     0.000
K               3.838e-005
   K+                    3.837e-005  3.562e-005    -4.416    -4.448    -0.032
   KSO4-                 1.128e-008  1.048e-008    -7.948    -7.980    -0.032
Mg              2.016e-004
   Mg+2                  1.965e-004  1.479e-004    -3.707    -3.830    -0.123
   MgHCO3+               1.982e-006  1.841e-006    -5.703    -5.735    -0.032
   MgCO3                 1.563e-006  1.564e-006    -5.806    -5.806     0.000
   MgSO4                 1.451e-006  1.452e-006    -5.838    -5.838     0.000
   MgOH+                 1.284e-007  1.193e-007    -6.891    -6.923    -0.032
Na              2.698e-003
   Na+                   2.695e-003  2.506e-003    -2.569    -2.601    -0.032
   NaHCO3                1.497e-006  1.499e-006    -5.825    -5.824     0.000
   NaSO4-                5.662e-007  5.261e-007    -6.247    -6.279    -0.032
   NaCO3-                5.567e-007  5.172e-007    -6.254    -6.286    -0.032
O(0)            0.000e+000
   O2                    0.000e+000  0.000e+000   -70.294   -70.294     0.000
S(-2)           4.765e-011
   HS-                   2.736e-011  2.542e-011   -10.563   -10.595    -0.032
   S5-2                  1.849e-012  1.435e-012   -11.733   -11.843    -0.110
   S4-2                  1.089e-012  8.372e-013   -11.963   -12.077    -0.114
   H2S                   9.992e-013  1.000e-012   -12.000   -12.000     0.000
   S6-2                  9.486e-013  7.428e-013   -12.023   -12.129    -0.106
   S-2                   9.157e-016  6.821e-016   -15.038   -15.166    -0.128
   S3-2                  3.875e-016  2.950e-016   -15.412   -15.530    -0.118
   S2-2                  2.217e-017  1.674e-017   -16.654   -16.776    -0.122
   Fe(HS)2               3.779e-018  3.783e-018   -17.423   -17.422     0.000
   Fe(HS)3-              1.127e-026  1.047e-026   -25.948   -25.980    -0.032
S(6)            6.053e-005
   SO4-2                 5.596e-005  4.189e-005    -4.252    -4.378    -0.126
   CaSO4                 2.495e-006  2.498e-006    -5.603    -5.602     0.000
   MgSO4                 1.451e-006  1.452e-006    -5.838    -5.838     0.000
   NaSO4-                5.662e-007  5.261e-007    -6.247    -6.279    -0.032
   FeSO4                 4.888e-008  4.894e-008    -7.311    -7.310     0.000
   KSO4-                 1.128e-008  1.048e-008    -7.948    -7.980    -0.032
   HSO4-                 1.973e-011  1.833e-011   -10.705   -10.737    -0.032
   CaHSO4+               7.089e-014  6.586e-014   -13.149   -13.181    -0.032
   FeHSO4+               1.558e-015  1.448e-015   -14.807   -14.839    -0.032
   FeSO4+                1.234e-023  1.147e-023   -22.909   -22.940    -0.032
   UO2SO4                1.353e-024  1.355e-024   -23.869   -23.868     0.000
   Fe(SO4)2-             1.131e-026  1.051e-026   -25.946   -25.978    -0.032
   UO2(SO4)2-2           7.445e-028  5.546e-028   -27.128   -27.256    -0.128
   FeHSO4+2              1.855e-031  1.382e-031   -30.732   -30.859    -0.128
   USO4+2                1.391e-036  1.036e-036   -35.857   -35.985    -0.128
   U(SO4)2               3.606e-037  3.610e-037   -36.443   -36.443     0.000
U(3)            0.000e+000
   U+3                   0.000e+000  0.000e+000   -42.295   -42.583    -0.288
U(4)            5.028e-014
   U(OH)4                5.028e-014  5.034e-014   -13.299   -13.298     0.000
   U(OH)3+               8.917e-019  8.284e-019   -18.050   -18.082    -0.032
   U(OH)2+2              2.314e-024  1.724e-024   -23.636   -23.763    -0.128
   U(CO3)4-4             2.533e-025  7.800e-026   -24.596   -25.108    -0.512
   U(CO3)5-6             1.541e-028  1.088e-029   -27.812   -28.963    -1.151
   UOH+3                 8.084e-031  4.168e-031   -30.092   -30.380    -0.288
   USO4+2                1.391e-036  1.036e-036   -35.857   -35.985    -0.128
   U(SO4)2               3.606e-037  3.610e-037   -36.443   -36.443     0.000
   U+4                   2.112e-038  6.505e-039   -37.675   -38.187    -0.512
   UCl+3                 1.735e-039  8.943e-040   -38.761   -39.049    -0.288
   U6(OH)15+9            0.000e+000  0.000e+000  -118.531  -121.121    -2.589
U(5)            1.914e-017
   UO2+                  1.914e-017  1.778e-017   -16.718   -16.750    -0.032
   UO2(CO3)3-5           4.104e-024  6.516e-025   -23.387   -24.186    -0.799
U(6)            8.277e-016
   UO2(CO3)3-4           4.319e-016  1.330e-016   -15.365   -15.876    -0.512
   UO2(CO3)2-2           3.776e-016  2.813e-016   -15.423   -15.551    -0.128
   UO2(OH)3-             1.705e-017  1.584e-017   -16.768   -16.800    -0.032
   UO2CO3                1.081e-018  1.083e-018   -17.966   -17.966     0.000
   UO2OH+                3.455e-020  3.209e-020   -19.462   -19.494    -0.032
   UO2(OH)4-2            7.486e-023  5.577e-023   -22.126   -22.254    -0.128
   UO2+2                 3.074e-023  2.290e-023   -22.512   -22.640    -0.128
   UO2SO4                1.353e-024  1.355e-024   -23.869   -23.868     0.000
   UO2Cl+                9.549e-026  8.872e-026   -25.020   -25.052    -0.032
   UO2(SO4)2-2           7.445e-028  5.546e-028   -27.128   -27.256    -0.128
   UO2Cl2                1.247e-029  1.248e-029   -28.904   -28.904     0.000
   (UO2)2(OH)2+2         8.332e-035  6.207e-035   -34.079   -34.207    -0.128
   (UO2)2OH+3            4.507e-040  2.324e-040   -39.346   -39.634    -0.288
   (UO2)3(OH)7-          0.000e+000  0.000e+000   -40.462   -40.494    -0.032
   (UO2)3(OH)5+          0.000e+000  0.000e+000   -41.705   -41.737    -0.032
   (UO2)3(CO3)6-6        0.000e+000  0.000e+000   -42.502   -43.652    -1.151
   (UO2)3(OH)4+2         0.000e+000  0.000e+000   -46.306   -46.434    -0.128
   (UO2)4(OH)7+          0.000e+000  0.000e+000   -54.002   -54.034    -0.032

------------------------------Saturation indices-------------------------------

	Phase               SI log IAP  log KT

	Anhydrite        -3.54   -7.90   -4.36  CaSO4
	Aragonite        -0.14   -8.48   -8.34  CaCO3
	Artinite         -5.52    4.08    9.60  MgCO3:Mg(OH)2:3H2O
	B-UO2(OH)2      -11.49   -5.95    5.54  UO2(OH)2
	Brucite          -3.98   12.86   16.84  Mg(OH)2
	Calcite           0.00   -8.48   -8.48  CaCO3
	CH4(g)           -9.29  -12.15   -2.86  CH4
	CO2(g)           -3.50   -4.97   -1.47  CO2
	Dolomite         -0.18  -17.27  -17.09  CaMg(CO3)2
	Dolomite(d)      -0.73  -17.27  -16.54  CaMg(CO3)2
	Epsomite         -6.07   -8.21   -2.14  MgSO4:7H2O
	Fe(OH)2.7Cl.3     2.20   -0.84   -3.04  Fe(OH)2.7Cl0.3
	Fe(OH)3(a)       -2.45    2.44    4.89  Fe(OH)3
	Fe3(OH)8         -3.84   16.39   20.22  Fe3(OH)8
	FeS(ppt)         -3.52   -7.43   -3.92  FeS
	Goethite          3.44    2.44   -1.00  FeOOH
	Graphite         -2.39    3.64    6.03  C
	Greigite        -14.35  -59.38  -45.03  Fe3S4
	Gummite         -16.35   -5.95   10.40  UO3
	Gypsum           -3.32   -7.90   -4.58  CaSO4:2H2O
	H2(g)            -7.89  -11.04   -3.15  H2
	H2O(g)           -1.51   -0.00    1.51  H2O
	H2S(g)          -11.00  -12.00   -1.00  H2S
	Halite           -6.76   -5.18    1.58  NaCl
	Hematite          8.88    4.87   -4.01  Fe2O3
	Huntite          -4.87  -34.84  -29.97  CaMg3(CO3)4
	Hydromagnesite  -13.52  -22.28   -8.76  Mg5(CO3)4(OH)2:4H2O
	Jarosite(ss)    -21.83  -31.66   -9.83  (K0.77Na0.03H0.2)Fe3(SO4)2(OH)6
	Jarosite-K      -21.72  -30.93   -9.21  KFe3(SO4)2(OH)6
	Jarosite-Na     -23.80  -29.08   -5.28  NaFe3(SO4)2(OH)6
	JarositeH       -29.44  -34.83   -5.39  (H3O)Fe3(SO4)2(OH)6
	Mackinawite      -2.78   -7.43   -4.65  FeS
	Maghemite        -1.51    4.87    6.39  Fe2O3
	Magnesite        -0.76   -8.79   -8.03  MgCO3
	Magnetite        12.65   16.39    3.74  Fe3O4
	Melanterite      -7.35   -9.56   -2.21  FeSO4:7H2O
	Mirabilite       -8.47   -9.58   -1.11  Na2SO4:10H2O
	Na4UO2(CO3)3    -31.62  -47.91  -16.29  Na4UO2(CO3)3
	Nahcolite        -5.03   -5.57   -0.55  NaHCO3
	Natron           -8.85  -10.16   -1.31  Na2CO3:10H2O
	Nesquehonite     -3.16   -8.79   -5.62  MgCO3:3H2O
	O2(g)           -67.40  -70.29   -2.89  O2
	Portlandite      -9.63   13.17   22.80  Ca(OH)2
	Pyrite            0.00  -18.48  -18.48  FeS2
	Rutherfordine   -13.15  -27.60  -14.45  UO2CO3
	Schoepite       -11.35   -5.95    5.40  UO2(OH)2:H2O
	Siderite          0.75  -10.14  -10.89  FeCO3
	Siderite(d)(3)    0.31  -10.14  -10.45  FeCO3
	Sulfur           -8.94  -23.97  -15.03  S
	Thenardite       -9.40   -9.58   -0.18  Na2SO4
	Thermonatrite   -10.28  -10.16    0.13  Na2CO3:H2O
	Trona           -14.94  -15.73   -0.80  NaHCO3:Na2CO3:2H2O
	U(OH)2SO4       -22.67  -25.87   -3.20  U(OH)2SO4
	U3O8(c)         -19.14    1.39   20.53  U3O8
	U4O9(c)          -7.92  -11.31   -3.38  U4O9
	UO2(a)           -4.90   -4.80    0.10  UO2
	UO3(gamma)      -13.67   -5.95    7.72  UO3
	Uraninite(c)      0.00   -4.80   -4.80  UO2

------------------
End of simulation.
------------------

------------------------------------
Reading input data for simulation 4.
------------------------------------

-----------
End of run.
-----------

