   Input file: sc1
  Output file: sc1.out
Database file: ../database/phreeqc.dat

------------------
Reading data base.
------------------

	SOLUTION_MASTER_SPECIES
	SOLUTION_SPECIES
	PHASES
	EXCHANGE_MASTER_SPECIES
	EXCHANGE_SPECIES
	SURFACE_MASTER_SPECIES
	SURFACE_SPECIES
	RATES
	END
------------------------------------
Reading input data for simulation 1.
------------------------------------

	DATABASE ../database/phreeqc.dat
	SURFACE_MASTER_SPECIES
	 Su_a Su_a
	 Su_b Su_b
	SURFACE_SPECIES
	 Su_a = Su_a
	 log_k 0
	 Su_b = Su_b
	 log_k 0
	SOLUTION 0
	 Na 1
	 Cl 0.1 charge
	 water 1
	SOLUTION 1-10
	 pH 7.0
	SURFACE 1
	 Su_a 1e-3 1e4 1 #Dw 1e-19
	 Su_b 1e-3
	 Hfo_w 1e-3 600 1 Dw 1e-19
	 Hfo_s 1e-3
	 equilibrate 1
	 donnan 1e-7 #d 1 l 0.99 v 1# 1e-9
	END
-------------------------------------------
Beginning of initial solution calculations.
-------------------------------------------

Initial solution 0.	

-----------------------------Solution composition------------------------------

	Elements           Molality       Moles

	Cl               1.000e-003  1.000e-003  Charge balance
	Na               1.000e-003  1.000e-003

----------------------------Description of solution----------------------------

                                       pH  =   7.000    
                                       pe  =   4.000    
       Specific Conductance (uS/cm, 25 oC) = 123
                          Density (g/cm3)  =   0.99709
                        Activity of water  =   1.000
                           Ionic strength  =  1.000e-003
                       Mass of water (kg)  =  1.000e+000
                 Total alkalinity (eq/kg)  =  3.658e-010
                    Total carbon (mol/kg)  =  0.000e+000
                       Total CO2 (mol/kg)  =  0.000e+000
                      Temperature (deg C)  =  25.000
                  Electrical balance (eq)  = -1.031e-012
 Percent error, 100*(Cat-|An|)/(Cat+|An|)  =  -0.00
                               Iterations  =   5
                                  Total H  = 1.110124e+002
                                  Total O  = 5.550622e+001

----------------------------Distribution of species----------------------------

                                                   Log       Log         Log 
   Species                 Molality    Activity  Molality  Activity     Gamma

   OH-                   1.038e-007  1.001e-007    -6.984    -7.000    -0.016
   H+                    1.034e-007  1.000e-007    -6.985    -7.000    -0.015
   H2O                   5.551e+001  1.000e+000     1.744    -0.000     0.000
Cl              1.000e-003
   Cl-                   1.000e-003  9.649e-004    -3.000    -3.016    -0.016
H(0)            1.416e-025
   H2                    7.078e-026  7.079e-026   -25.150   -25.150     0.000
Na              1.000e-003
   Na+                   1.000e-003  9.652e-004    -3.000    -3.015    -0.015
   NaOH                  6.375e-011  6.377e-011   -10.196   -10.195     0.000
O(0)            0.000e+000
   O2                    0.000e+000  0.000e+000   -42.080   -42.080     0.000

------------------------------Saturation indices-------------------------------

	Phase               SI log IAP  log KT

	H2(g)           -22.00  -25.15   -3.15  H2
	H2O(g)           -1.51   -0.00    1.51  H2O
	Halite           -7.61   -6.03    1.58  NaCl
	O2(g)           -39.19  -42.08   -2.89  O2

Initial solution 1.	

-----------------------------Solution composition------------------------------

	Elements           Molality       Moles

	Pure water     

----------------------------Description of solution----------------------------

                                       pH  =   7.000    
                                       pe  =   4.000    
       Specific Conductance (uS/cm, 25 oC) = 0
                          Density (g/cm3)  =   0.99705
                        Activity of water  =   1.000
                           Ionic strength  =  1.001e-007
                       Mass of water (kg)  =  1.000e+000
                 Total alkalinity (eq/kg)  =  1.082e-010
                    Total carbon (mol/kg)  =  0.000e+000
                       Total CO2 (mol/kg)  =  0.000e+000
                      Temperature (deg C)  =  25.000
                  Electrical balance (eq)  = -1.082e-010
 Percent error, 100*(Cat-|An|)/(Cat+|An|)  =  -0.05
                               Iterations  =   0
                                  Total H  = 1.110124e+002
                                  Total O  = 5.550622e+001

----------------------------Distribution of species----------------------------

                                                   Log       Log         Log 
   Species                 Molality    Activity  Molality  Activity     Gamma

   OH-                   1.002e-007  1.001e-007    -6.999    -6.999    -0.000
   H+                    1.001e-007  1.000e-007    -7.000    -7.000    -0.000
   H2O                   5.551e+001  1.000e+000     1.744     0.000     0.000
H(0)            1.416e-025
   H2                    7.079e-026  7.079e-026   -25.150   -25.150     0.000
O(0)            0.000e+000
   O2                    0.000e+000  0.000e+000   -42.080   -42.080     0.000

------------------------------Saturation indices-------------------------------

	Phase               SI log IAP  log KT

	H2(g)           -22.00  -25.15   -3.15  H2
	H2O(g)           -1.51    0.00    1.51  H2O
	O2(g)           -39.19  -42.08   -2.89  O2

------------------------------------------------------
Beginning of initial surface-composition calculations.
------------------------------------------------------

Surface 1.	

Hfo           
	-7.915e-019  Surface + diffuse layer charge, eq
	 3.821e-007  Surface charge, eq
	 6.145e-005  sigma, C/m**2
	 6.564e-002  psi, V
	-2.555e+000  -F*psi/RT
	 7.769e-002  exp(-F*psi/RT)
	 6.000e+002  specific area, m**2/g
	 6.000e+002  m**2 for  1.000e+000 g

	Water in diffuse layer: 6.000e-002 kg,  5.7% of total DDL-water.

	Total moles in diffuse layer (excluding water), Donnan calculation 

	Element       	     Moles
	H             	 3.8232e-007
	O             	 3.8222e-007

Hfo_s         
	 1.000e-003  moles
	                                   Mole                     Log
	Species               Moles    Fraction    Molality    Molality

	Hfo_sOH          7.676e-004       0.768  7.676e-004      -3.115
	Hfo_sOH2+        1.163e-004       0.116  1.163e-004      -3.934
	Hfo_sO-          1.161e-004       0.116  1.161e-004      -3.935

Hfo_w         
	 1.000e-003  moles
	                                   Mole                     Log
	Species               Moles    Fraction    Molality    Molality

	Hfo_wOH          7.676e-004       0.768  7.676e-004      -3.115
	Hfo_wOH2+        1.163e-004       0.116  1.163e-004      -3.934
	Hfo_wO-          1.161e-004       0.116  1.161e-004      -3.935

Su            
	 0.000e+000  Surface + diffuse layer charge, eq
	 0.000e+000  Surface charge, eq
	 0.000e+000  sigma, C/m**2
	-7.918e-020  psi, V
	 3.082e-018  -F*psi/RT
	 1.000e+000  exp(-F*psi/RT)
	 1.000e+004  specific area, m**2/g
	 1.000e+004  m**2 for  1.000e+000 g

	Water in diffuse layer: 1.000e+000 kg, 94.3% of total DDL-water.

	Total moles in diffuse layer (excluding water), Donnan calculation 

	Element       	     Moles
	H             	 2.0018e-007
	O             	 1.0009e-007

Su_a          
	 1.000e-003  moles
	                                   Mole                     Log
	Species               Moles    Fraction    Molality    Molality

	Su_a             1.000e-003       1.000  1.000e-003      -3.000

Su_b          
	 1.000e-003  moles
	                                   Mole                     Log
	Species               Moles    Fraction    Molality    Molality

	Su_b             1.000e-003       1.000  1.000e-003      -3.000

-----------------------------------------
Beginning of batch-reaction calculations.
-----------------------------------------

Reaction step 1.

Using solution 0.	
Using surface 1.	Surface assemblage after simulation 1.

------------------------------Surface composition------------------------------

Hfo           
	 1.593e-012  Surface + diffuse layer charge, eq
	 2.078e-006  Surface charge, eq
	 3.342e-004  sigma, C/m**2
	 6.616e-003  psi, V
	-2.575e-001  -F*psi/RT
	 7.730e-001  exp(-F*psi/RT)
	 6.000e+002  specific area, m**2/g
	 6.000e+002  m**2 for  1.000e+000 g

	Water in diffuse layer: 6.000e-002 kg,  5.7% of total DDL-water.

	Total moles in diffuse layer (excluding water), Donnan calculation 

	Element       	     Moles
	Cl            	 3.0151e-005
	H             	 6.3896e-008
	Na            	 2.8136e-005
	O             	 6.3297e-008

Hfo_s         
	 1.000e-003  moles
	                                   Mole                     Log
	Species               Moles    Fraction    Molality    Molality

	Hfo_sOH          7.676e-004       0.768  7.676e-004      -3.115
	Hfo_sOH2+        1.167e-004       0.117  1.167e-004      -3.933
	Hfo_sO-          1.157e-004       0.116  1.157e-004      -3.937

Hfo_w         
	 1.000e-003  moles
	                                   Mole                     Log
	Species               Moles    Fraction    Molality    Molality

	Hfo_wOH          7.676e-004       0.768  7.676e-004      -3.115
	Hfo_wOH2+        1.167e-004       0.117  1.167e-004      -3.933
	Hfo_wO-          1.157e-004       0.116  1.157e-004      -3.937

Su            
	-2.091e-015  Surface + diffuse layer charge, eq
	 0.000e+000  Surface charge, eq
	 0.000e+000  sigma, C/m**2
	 5.631e-011  psi, V
	-2.192e-009  -F*psi/RT
	 1.000e+000  exp(-F*psi/RT)
	 1.000e+004  specific area, m**2/g
	 1.000e+004  m**2 for  1.000e+000 g

	Water in diffuse layer: 1.000e+000 kg, 94.3% of total DDL-water.

	Total moles in diffuse layer (excluding water), Donnan calculation 

	Element       	     Moles
	Cl            	 4.8492e-004
	H             	 1.0284e-006
	Na            	 4.8593e-004
	O             	 1.0180e-006

Su_a          
	 1.000e-003  moles
	                                   Mole                     Log
	Species               Moles    Fraction    Molality    Molality

	Su_a             1.000e-003       1.000  1.000e-003      -3.000

Su_b          
	 1.000e-003  moles
	                                   Mole                     Log
	Species               Moles    Fraction    Molality    Molality

	Su_b             1.000e-003       1.000  1.000e-003      -3.000

-----------------------------Solution composition------------------------------

	Elements           Molality       Moles

	Cl               4.849e-004  4.849e-004
	Na               4.859e-004  4.859e-004

----------------------------Description of solution----------------------------

                                       pH  =   7.996      Charge balance
                                       pe  =   9.701      Adjusted to redox equilibrium
       Specific Conductance (uS/cm, 25 oC) = 60
                          Density (g/cm3)  =   0.99707
                        Activity of water  =   1.000
                           Ionic strength  =  4.859e-004
                       Mass of water (kg)  =  1.000e+000
                 Total alkalinity (eq/kg)  =  1.008e-006
                    Total carbon (mol/kg)  =  0.000e+000
                       Total CO2 (mol/kg)  =  0.000e+000
                      Temperature (deg C)  =  25.000
                  Electrical balance (eq)  = -1.031e-012
 Percent error, 100*(Cat-|An|)/(Cat+|An|)  =  -0.00
                               Iterations  =   0
                                  Total H  = 1.110124e+002
                                  Total O  = 5.550622e+001

----------------------------Distribution of species----------------------------

                                                   Log       Log         Log 
   Species                 Molality    Activity  Molality  Activity     Gamma

   OH-                   1.018e-006  9.924e-007    -5.992    -6.003    -0.011
   H+                    1.034e-008  1.009e-008    -7.986    -7.996    -0.011
   H2O                   5.551e+001  1.000e+000     1.744    -0.000     0.000
Cl              4.849e-004
   Cl-                   4.849e-004  4.729e-004    -3.314    -3.325    -0.011
H(0)            5.718e-039
   H2                    2.859e-039  2.859e-039   -38.544   -38.544     0.000
Na              4.859e-004
   Na+                   4.859e-004  4.739e-004    -3.313    -3.324    -0.011
   NaOH                  3.104e-010  3.104e-010    -9.508    -9.508     0.000
O(0)            1.020e-015
   O2                    5.098e-016  5.098e-016   -15.293   -15.293     0.000

------------------------------Saturation indices-------------------------------

	Phase               SI log IAP  log KT

	H2(g)           -35.39  -38.54   -3.15  H2
	H2O(g)           -1.51   -0.00    1.51  H2O
	Halite           -8.23   -6.65    1.58  NaCl
	O2(g)           -12.40  -15.29   -2.89  O2

------------------
End of simulation.
------------------

------------------------------------
Reading input data for simulation 2.
------------------------------------

	TRANSPORT
	 diffc 0e-9
	 cells 2
	 length 1
	 disp 0
	 shifts 2 1
	 bcond 3 3
	 timest 1e-8
	 punch_frequency 1
	 multi_d true 1e-9 1#0.547723 0 1
	SELECTED_OUTPUT
WARNING: Cell-lengths were read for 1 cells. Last value is used till cell 2.
WARNING: Dispersivities were read for 1 cells. Last value is used till cell 2.
	 file sc1.prn
	 reset false
	USER_PUNCH
	 heading dist Cl Su_a Su_b Hfo_w Hfo_s
	 start
	 10 punch dist, tot("Cl")*1e3 , tot("Su_a")*1e3, tot("Su_b")*1e3, tot("Hfo_w")*1e3, tot("Hfo_s")*1e3
	 end
	END
------------------------------------
Beginning of transport calculations.
------------------------------------

-------------------------------
Equilibrating initial solutions
-------------------------------

Using solution 1.	
Using surface 1.	Surface assemblage after simulation 1.

------------------------------Surface composition------------------------------

Hfo           
	 7.529e-014  Surface + diffuse layer charge, eq
	 3.821e-007  Surface charge, eq
	 6.146e-005  sigma, C/m**2
	 6.564e-002  psi, V
	-2.555e+000  -F*psi/RT
	 7.769e-002  exp(-F*psi/RT)
	 6.000e+002  specific area, m**2/g
	 6.000e+002  m**2 for  1.000e+000 g

	Water in diffuse layer: 6.000e-002 kg,  5.7% of total DDL-water.

	Total moles in diffuse layer (excluding water), Donnan calculation 

	Element       	     Moles
	H             	 3.8232e-007
	O             	 3.8222e-007

Hfo_s         
	 1.000e-003  moles
	                                   Mole                     Log
	Species               Moles    Fraction    Molality    Molality

	Hfo_sOH          7.676e-004       0.768  7.676e-004      -3.115
	Hfo_sOH2+        1.163e-004       0.116  1.163e-004      -3.934
	Hfo_sO-          1.161e-004       0.116  1.161e-004      -3.935

Hfo_w         
	 1.000e-003  moles
	                                   Mole                     Log
	Species               Moles    Fraction    Molality    Molality

	Hfo_wOH          7.676e-004       0.768  7.676e-004      -3.115
	Hfo_wOH2+        1.163e-004       0.116  1.163e-004      -3.934
	Hfo_wO-          1.161e-004       0.116  1.161e-004      -3.935

Su            
	 3.770e-014  Surface + diffuse layer charge, eq
	 0.000e+000  Surface charge, eq
	 0.000e+000  sigma, C/m**2
	-5.033e-010  psi, V
	 1.959e-008  -F*psi/RT
	 1.000e+000  exp(-F*psi/RT)
	 1.000e+004  specific area, m**2/g
	 1.000e+004  m**2 for  1.000e+000 g

	Water in diffuse layer: 1.000e+000 kg, 94.3% of total DDL-water.

	Total moles in diffuse layer (excluding water), Donnan calculation 

	Element       	     Moles
	H             	 2.0018e-007
	O             	 1.0010e-007

Su_a          
	 1.000e-003  moles
	                                   Mole                     Log
	Species               Moles    Fraction    Molality    Molality

	Su_a             1.000e-003       1.000  1.000e-003      -3.000

Su_b          
	 1.000e-003  moles
	                                   Mole                     Log
	Species               Moles    Fraction    Molality    Molality

	Su_b             1.000e-003       1.000  1.000e-003      -3.000

-----------------------------Solution composition------------------------------

	Elements           Molality       Moles

	Pure water     

----------------------------Description of solution----------------------------

                                       pH  =   7.000      Charge balance
                                       pe  =  11.691      Adjusted to redox equilibrium
       Specific Conductance (uS/cm, 25 oC) = 0
                          Density (g/cm3)  =   0.99705
                        Activity of water  =   1.000
                           Ionic strength  =  1.001e-007
                       Mass of water (kg)  =  1.000e+000
                 Total alkalinity (eq/kg)  =  1.082e-010
                    Total carbon (mol/kg)  =  0.000e+000
                       Total CO2 (mol/kg)  =  0.000e+000
                      Temperature (deg C)  =  25.000
                  Electrical balance (eq)  = -1.082e-010
 Percent error, 100*(Cat-|An|)/(Cat+|An|)  =  -0.05
                               Iterations  =   0
                                  Total H  = 1.110124e+002
                                  Total O  = 5.550622e+001

----------------------------Distribution of species----------------------------

                                                   Log       Log         Log 
   Species                 Molality    Activity  Molality  Activity     Gamma

   OH-                   1.001e-007  1.001e-007    -6.999    -7.000    -0.000
   H+                    1.000e-007  1.000e-007    -7.000    -7.000    -0.000
   H2O                   5.551e+001  1.000e+000     1.744    -0.000     0.000
H(0)            0.000e+000
   H2                    0.000e+000  0.000e+000   -40.533   -40.533     0.000
O(0)            9.702e-012
   O2                    4.851e-012  4.851e-012   -11.314   -11.314     0.000

------------------------------Saturation indices-------------------------------

	Phase               SI log IAP  log KT

	H2(g)           -37.38  -40.53   -3.15  H2
	H2O(g)           -1.51   -0.00    1.51  H2O
	O2(g)            -8.42  -11.31   -2.89  O2

Using solution 2.	

-----------------------------Solution composition------------------------------

	Elements           Molality       Moles

	Pure water     

----------------------------Description of solution----------------------------

                                       pH  =   7.000      Charge balance
                                       pe  =  11.425      Adjusted to redox equilibrium
       Specific Conductance (uS/cm, 25 oC) = 0
                          Density (g/cm3)  =   0.99705
                        Activity of water  =   1.000
                           Ionic strength  =  1.001e-007
                       Mass of water (kg)  =  1.000e+000
                 Total alkalinity (eq/kg)  =  1.082e-010
                    Total carbon (mol/kg)  =  0.000e+000
                       Total CO2 (mol/kg)  =  0.000e+000
                      Temperature (deg C)  =  25.000
                  Electrical balance (eq)  = -1.082e-010
 Percent error, 100*(Cat-|An|)/(Cat+|An|)  =  -0.05
                               Iterations  =   6
                                  Total H  = 1.110124e+002
                                  Total O  = 5.550622e+001

----------------------------Distribution of species----------------------------

                                                   Log       Log         Log 
   Species                 Molality    Activity  Molality  Activity     Gamma

   OH-                   1.001e-007  1.001e-007    -6.999    -7.000    -0.000
   H+                    1.000e-007  1.000e-007    -7.000    -7.000    -0.000
   H2O                   5.551e+001  1.000e+000     1.744    -0.000     0.000
H(0)            0.000e+000
   H2                    0.000e+000  0.000e+000   -40.000   -40.000     0.000
O(0)            8.341e-013
   O2                    4.170e-013  4.170e-013   -12.380   -12.380     0.000

------------------------------Saturation indices-------------------------------

	Phase               SI log IAP  log KT

	H2(g)           -36.85  -40.00   -3.15  H2
	H2O(g)           -1.51   -0.00    1.51  H2O
	O2(g)            -9.49  -12.38   -2.89  O2

Transport step   1.

Transport step   1. Multicomponent diffusion run   1.

Using mix 1.	 
Using surface 1.	Surface defined in simulation 2.

Mixture 1.	 

	 0.000e+000 Solution 0	Solution after simulation 2.                           
	 0.000e+000 Solution 2	Solution after simulation 2.                           
	 1.000e+000 Solution 1	Solution after simulation 2.                           

------------------------------Surface composition------------------------------

Su            
	-9.934e-013  Surface + diffuse layer charge, eq
	 0.000e+000  Surface charge, eq
	 0.000e+000  sigma, C/m**2
	 7.703e-012  psi, V
	-2.998e-010  -F*psi/RT
	 1.000e+000  exp(-F*psi/RT)
	 1.000e+004  specific area, m**2/g
	 1.000e+004  m**2 for  1.000e+000 g

	Water in diffuse layer: 1.000e+000 kg, 100.0% of total DDL-water.

	Total moles in diffuse layer (excluding water), Donnan calculation 

	Element       	     Moles
	Cl            	 5.0000e-004
	H             	 2.0522e-007
	Na            	 5.0000e-004
	O             	 1.0271e-007

Su_a          
	 1.000e-003  moles
	                                   Mole                     Log
	Species               Moles    Fraction    Molality    Molality

	Su_a             1.000e-003       1.000  1.000e-003      -3.000

Su_b          
	 1.000e-003  moles
	                                   Mole                     Log
	Species               Moles    Fraction    Molality    Molality

	Su_b             1.000e-003       1.000  1.000e-003      -3.000

Hfo           
	 5.129e-029  Surface + diffuse layer charge, eq
	 5.129e-029  Surface charge, eq
	undefined  sigma, C/m**2
	 6.564e-002  psi, V
	-2.555e+000  -F*psi/RT
	 7.769e-002  exp(-F*psi/RT)
	 6.000e+002  specific area, m**2/g
	 0.000e+000  m**2 for  0.000e+000 g

	Water in diffuse layer: 0.000e+000 kg,  0.0% of total DDL-water.

	Total moles in diffuse layer (excluding water), Donnan calculation 

	Element       	     Moles
	Cl            	 5.0000e-016
	H             	 2.0522e-019
	Na            	 5.0000e-016
	O             	 1.0271e-019

Hfo_s         
	 1.000e-025  moles
	                                   Mole                     Log
	Species               Moles    Fraction    Molality    Molality

	Hfo_sOH          7.676e-026       0.000  7.676e-026     -25.115
	Hfo_sOH2+        1.163e-026       0.000  1.163e-026     -25.934
	Hfo_sO-          1.161e-026       0.000  1.161e-026     -25.935

Hfo_w         
	 1.000e-025  moles
	                                   Mole                     Log
	Species               Moles    Fraction    Molality    Molality

	Hfo_wOH          7.676e-026       0.000  7.676e-026     -25.115
	Hfo_wOH2+        1.163e-026       0.000  1.163e-026     -25.934
	Hfo_wO-          1.161e-026       0.000  1.161e-026     -25.935

-----------------------------Solution composition------------------------------

	Elements           Molality       Moles

	Cl               5.000e-004  5.000e-004
	Na               5.000e-004  5.000e-004

----------------------------Description of solution----------------------------

                                       pH  =   7.000      Charge balance
                                       pe  =  11.616      Adjusted to redox equilibrium
       Specific Conductance (uS/cm, 25 oC) = 62
                          Density (g/cm3)  =   0.99707
                        Activity of water  =   1.000
                           Ionic strength  =  5.001e-004
                       Mass of water (kg)  =  1.000e+000
                 Total alkalinity (eq/kg)  =  1.829e-010
                    Total carbon (mol/kg)  =  0.000e+000
                       Total CO2 (mol/kg)  =  0.000e+000
                      Temperature (deg C)  =  25.000
                  Electrical balance (eq)  = -9.934e-013
 Percent error, 100*(Cat-|An|)/(Cat+|An|)  =  -0.00
                               Iterations  =   0
                                  Total H  = 1.110124e+002
                                  Total O  = 5.550622e+001

----------------------------Distribution of species----------------------------

                                                   Log       Log         Log 
   Species                 Molality    Activity  Molality  Activity     Gamma

   OH-                   1.027e-007  1.001e-007    -6.989    -7.000    -0.011
   H+                    1.025e-007  1.000e-007    -6.989    -7.000    -0.011
   H2O                   5.551e+001  1.000e+000     1.744    -0.000     0.000
Cl              5.000e-004
   Cl-                   5.000e-004  4.874e-004    -3.301    -3.312    -0.011
H(0)            0.000e+000
   H2                    0.000e+000  0.000e+000   -40.383   -40.383     0.000
Na              5.000e-004
   Na+                   5.000e-004  4.875e-004    -3.301    -3.312    -0.011
   NaOH                  3.219e-011  3.220e-011   -10.492   -10.492     0.000
O(0)            4.858e-012
   O2                    2.429e-012  2.429e-012   -11.615   -11.615     0.000

------------------------------Saturation indices-------------------------------

	Phase               SI log IAP  log KT

	H2(g)           -37.23  -40.38   -3.15  H2
	H2O(g)           -1.51   -0.00    1.51  H2O
	Halite           -8.21   -6.62    1.58  NaCl
	O2(g)            -8.72  -11.61   -2.89  O2

Using mix 2.	 
Using surface 2.	Surface defined in simulation 2.

Mixture 2.	 

	 0.000e+000 Solution 1	Solution after simulation 2.                           
	 0.000e+000 Solution 3	Solution after simulation 2.                           
	 1.000e+000 Solution 2	Solution after simulation 2.                           

------------------------------Surface composition------------------------------

Hfo           
	-3.442e-019  Surface + diffuse layer charge, eq
	 3.821e-007  Surface charge, eq
	 6.146e-005  sigma, C/m**2
	 6.564e-002  psi, V
	-2.555e+000  -F*psi/RT
	 7.769e-002  exp(-F*psi/RT)
	 6.000e+002  specific area, m**2/g
	 6.000e+002  m**2 for  1.000e+000 g

	Water in diffuse layer: 6.000e-002 kg, 100.0% of total DDL-water.

	Total moles in diffuse layer (excluding water), Donnan calculation 

	Element       	     Moles
	Cl            	 7.0249e-021
	H             	 3.8232e-007
	Na            	 6.7444e-024
	O             	 3.8222e-007

Hfo_s         
	 1.000e-003  moles
	                                   Mole                     Log
	Species               Moles    Fraction    Molality    Molality

	Hfo_sOH          7.676e-004       0.768  7.676e-004      -3.115
	Hfo_sOH2+        1.163e-004       0.116  1.163e-004      -3.934
	Hfo_sO-          1.161e-004       0.116  1.161e-004      -3.935

Hfo_w         
	 1.000e-003  moles
	                                   Mole                     Log
	Species               Moles    Fraction    Molality    Molality

	Hfo_wOH          7.676e-004       0.768  7.676e-004      -3.115
	Hfo_wOH2+        1.163e-004       0.116  1.163e-004      -3.934
	Hfo_wO-          1.161e-004       0.116  1.161e-004      -3.935

-----------------------------Solution composition------------------------------

	Elements           Molality       Moles

	Cl               1.841e-021  1.841e-021
	Na               7.150e-021  7.150e-021

----------------------------Description of solution----------------------------

                                       pH  =   7.000      Charge balance
                                       pe  =  11.691      Adjusted to redox equilibrium
       Specific Conductance (uS/cm, 25 oC) = 0
                          Density (g/cm3)  =   0.99705
                        Activity of water  =   1.000
                           Ionic strength  =  1.001e-007
                       Mass of water (kg)  =  1.000e+000
                 Total alkalinity (eq/kg)  =  1.081e-010
                    Total carbon (mol/kg)  =  0.000e+000
                       Total CO2 (mol/kg)  =  0.000e+000
                      Temperature (deg C)  =  25.000
                  Electrical balance (eq)  = -1.081e-010
 Percent error, 100*(Cat-|An|)/(Cat+|An|)  =  -0.05
                               Iterations  =   0
                                  Total H  = 1.110124e+002
                                  Total O  = 5.550622e+001

----------------------------Distribution of species----------------------------

                                                   Log       Log         Log 
   Species                 Molality    Activity  Molality  Activity     Gamma

   OH-                   1.001e-007  1.001e-007    -6.999    -7.000    -0.000
   H+                    1.000e-007  1.000e-007    -7.000    -7.000    -0.000
   H2O                   5.551e+001  1.000e+000     1.744    -0.000     0.000
Cl              1.841e-021
   Cl-                   1.841e-021  1.840e-021   -20.735   -20.735    -0.000
H(0)            0.000e+000
   H2                    0.000e+000  0.000e+000   -40.532   -40.532     0.000
Na              7.150e-021
   Na+                   7.150e-021  7.148e-021   -20.146   -20.146    -0.000
   NaOH                  4.722e-028  4.722e-028   -27.326   -27.326     0.000
O(0)            9.673e-012
   O2                    4.836e-012  4.836e-012   -11.315   -11.315     0.000

------------------------------Saturation indices-------------------------------

	Phase               SI log IAP  log KT

	H2(g)           -37.38  -40.53   -3.15  H2
	H2O(g)           -1.51   -0.00    1.51  H2O
	Halite          -42.46  -40.88    1.58  NaCl
	O2(g)            -8.42  -11.32   -2.89  O2

Transport step   2.

Transport step   2. Multicomponent diffusion run   1.

Using mix 1.	 
Using surface 1.	Surface defined in simulation 2.

Mixture 1.	 

	 0.000e+000 Solution 0	Solution after simulation 2.                           
	 0.000e+000 Solution 2	Solution after simulation 2.                           
	 1.000e+000 Solution 1	Solution after simulation 2.                           

------------------------------Surface composition------------------------------

Su            
	-2.024e-012  Surface + diffuse layer charge, eq
	 0.000e+000  Surface charge, eq
	 0.000e+000  sigma, C/m**2
	-2.751e-010  psi, V
	 1.071e-008  -F*psi/RT
	 1.000e+000  exp(-F*psi/RT)
	 1.000e+004  specific area, m**2/g
	 1.000e+004  m**2 for  1.000e+000 g

	Water in diffuse layer: 1.000e+000 kg, 100.0% of total DDL-water.

	Total moles in diffuse layer (excluding water), Donnan calculation 

	Element       	     Moles
	Cl            	 7.5000e-004
	H             	 2.0634e-007
	Na            	 7.5000e-004
	O             	 1.0331e-007

Su_a          
	 1.000e-003  moles
	                                   Mole                     Log
	Species               Moles    Fraction    Molality    Molality

	Su_a             1.000e-003       1.000  1.000e-003      -3.000

Su_b          
	 1.000e-003  moles
	                                   Mole                     Log
	Species               Moles    Fraction    Molality    Molality

	Su_b             1.000e-003       1.000  1.000e-003      -3.000

Hfo           
	 4.484e-029  Surface + diffuse layer charge, eq
	 4.484e-029  Surface charge, eq
	undefined  sigma, C/m**2
	 6.564e-002  psi, V
	-2.555e+000  -F*psi/RT
	 7.769e-002  exp(-F*psi/RT)
	 6.000e+002  specific area, m**2/g
	 0.000e+000  m**2 for  0.000e+000 g

	Water in diffuse layer: 0.000e+000 kg,  0.0% of total DDL-water.

	Total moles in diffuse layer (excluding water), Donnan calculation 

	Element       	     Moles
	Cl            	 7.5000e-016
	H             	 2.0634e-019
	Na            	 7.5000e-016
	O             	 1.0331e-019

Hfo_s         
	 1.000e-025  moles
	                                   Mole                     Log
	Species               Moles    Fraction    Molality    Molality

	Hfo_sOH          7.676e-026       0.000  7.676e-026     -25.115
	Hfo_sOH2+        1.163e-026       0.000  1.163e-026     -25.934
	Hfo_sO-          1.161e-026       0.000  1.161e-026     -25.935

Hfo_w         
	 1.000e-025  moles
	                                   Mole                     Log
	Species               Moles    Fraction    Molality    Molality

	Hfo_wOH          7.676e-026       0.000  7.676e-026     -25.115
	Hfo_wOH2+        1.163e-026       0.000  1.163e-026     -25.934
	Hfo_wO-          1.161e-026       0.000  1.161e-026     -25.935

-----------------------------Solution composition------------------------------

	Elements           Molality       Moles

	Cl               7.500e-004  7.500e-004
	Na               7.500e-004  7.500e-004

----------------------------Description of solution----------------------------

                                       pH  =   7.000      Charge balance
                                       pe  =  11.685      Adjusted to redox equilibrium
       Specific Conductance (uS/cm, 25 oC) = 92
                          Density (g/cm3)  =   0.99708
                        Activity of water  =   1.000
                           Ionic strength  =  7.501e-004
                       Mass of water (kg)  =  1.000e+000
                 Total alkalinity (eq/kg)  =  2.743e-010
                    Total carbon (mol/kg)  =  0.000e+000
                       Total CO2 (mol/kg)  =  0.000e+000
                      Temperature (deg C)  =  25.000
                  Electrical balance (eq)  = -2.024e-012
 Percent error, 100*(Cat-|An|)/(Cat+|An|)  =  -0.00
                               Iterations  =   0
                                  Total H  = 1.110124e+002
                                  Total O  = 5.550622e+001

----------------------------Distribution of species----------------------------

                                                   Log       Log         Log 
   Species                 Molality    Activity  Molality  Activity     Gamma

   OH-                   1.033e-007  1.001e-007    -6.986    -7.000    -0.014
   H+                    1.030e-007  1.000e-007    -6.987    -7.000    -0.013
   H2O                   5.551e+001  1.000e+000     1.744    -0.000     0.000
Cl              7.500e-004
   Cl-                   7.500e-004  7.270e-004    -3.125    -3.138    -0.014
H(0)            0.000e+000
   H2                    0.000e+000  0.000e+000   -40.519   -40.519     0.000
Na              7.500e-004
   Na+                   7.500e-004  7.272e-004    -3.125    -3.138    -0.013
   NaOH                  4.803e-011  4.804e-011   -10.318   -10.318     0.000
O(0)            9.096e-012
   O2                    4.548e-012  4.549e-012   -11.342   -11.342     0.000

------------------------------Saturation indices-------------------------------

	Phase               SI log IAP  log KT

	H2(g)           -37.37  -40.52   -3.15  H2
	H2O(g)           -1.51   -0.00    1.51  H2O
	Halite           -7.86   -6.28    1.58  NaCl
	O2(g)            -8.45  -11.34   -2.89  O2

Using mix 2.	 
Using surface 2.	Surface defined in simulation 2.

Mixture 2.	 

	 0.000e+000 Solution 1	Solution after simulation 2.                           
	 0.000e+000 Solution 3	Solution after simulation 2.                           
	 1.000e+000 Solution 2	Solution after simulation 2.                           

------------------------------Surface composition------------------------------

Hfo           
	 5.129e-029  Surface + diffuse layer charge, eq
	 5.129e-029  Surface charge, eq
	undefined  sigma, C/m**2
	 6.564e-002  psi, V
	-2.555e+000  -F*psi/RT
	 7.769e-002  exp(-F*psi/RT)
	 6.000e+002  specific area, m**2/g
	 0.000e+000  m**2 for  0.000e+000 g

	Water in diffuse layer: 0.000e+000 kg,  0.0% of total DDL-water.

	Total moles in diffuse layer (excluding water), Donnan calculation 

	Element       	     Moles
	Cl            	 5.0000e-016
	H             	 2.0522e-019
	Na            	 5.0000e-016
	O             	 1.0271e-019

Hfo_s         
	 1.000e-025  moles
	                                   Mole                     Log
	Species               Moles    Fraction    Molality    Molality

	Hfo_sOH          7.676e-026       0.000  7.676e-026     -25.115
	Hfo_sOH2+        1.163e-026       0.000  1.163e-026     -25.934
	Hfo_sO-          1.161e-026       0.000  1.161e-026     -25.935

Hfo_w         
	 1.000e-025  moles
	                                   Mole                     Log
	Species               Moles    Fraction    Molality    Molality

	Hfo_wOH          7.676e-026       0.000  7.676e-026     -25.115
	Hfo_wOH2+        1.163e-026       0.000  1.163e-026     -25.934
	Hfo_wO-          1.161e-026       0.000  1.161e-026     -25.935

-----------------------------Solution composition------------------------------

	Elements           Molality       Moles

	Cl               5.000e-004  5.000e-004
	Na               5.000e-004  5.000e-004

----------------------------Description of solution----------------------------

                                       pH  =   7.000      Charge balance
                                       pe  =  11.616      Adjusted to redox equilibrium
       Specific Conductance (uS/cm, 25 oC) = 62
                          Density (g/cm3)  =   0.99707
                        Activity of water  =   1.000
                           Ionic strength  =  5.001e-004
                       Mass of water (kg)  =  1.000e+000
                 Total alkalinity (eq/kg)  =  1.829e-010
                    Total carbon (mol/kg)  =  0.000e+000
                       Total CO2 (mol/kg)  =  0.000e+000
                      Temperature (deg C)  =  25.000
                  Electrical balance (eq)  = -9.934e-013
 Percent error, 100*(Cat-|An|)/(Cat+|An|)  =  -0.00
                               Iterations  =   0
                                  Total H  = 1.110124e+002
                                  Total O  = 5.550622e+001

----------------------------Distribution of species----------------------------

                                                   Log       Log         Log 
   Species                 Molality    Activity  Molality  Activity     Gamma

   OH-                   1.027e-007  1.001e-007    -6.989    -7.000    -0.011
   H+                    1.025e-007  1.000e-007    -6.989    -7.000    -0.011
   H2O                   5.551e+001  1.000e+000     1.744    -0.000     0.000
Cl              5.000e-004
   Cl-                   5.000e-004  4.874e-004    -3.301    -3.312    -0.011
H(0)            0.000e+000
   H2                    0.000e+000  0.000e+000   -40.383   -40.383     0.000
Na              5.000e-004
   Na+                   5.000e-004  4.875e-004    -3.301    -3.312    -0.011
   NaOH                  3.219e-011  3.220e-011   -10.492   -10.492     0.000
O(0)            4.858e-012
   O2                    2.429e-012  2.429e-012   -11.615   -11.615     0.000

------------------------------Saturation indices-------------------------------

	Phase               SI log IAP  log KT

	H2(g)           -37.23  -40.38   -3.15  H2
	H2O(g)           -1.51   -0.00    1.51  H2O
	Halite           -8.21   -6.62    1.58  NaCl
	O2(g)            -8.72  -11.61   -2.89  O2

------------------
End of simulation.
------------------

------------------------------------
Reading input data for simulation 3.
------------------------------------

-----------
End of run.
-----------

