   Input file: sc2
  Output file: sc2.out
Database file: phreeqc.dat

------------------
Reading data base.
------------------

	SOLUTION_MASTER_SPECIES
	SOLUTION_SPECIES
	PHASES
	EXCHANGE_MASTER_SPECIES
	EXCHANGE_SPECIES
	SURFACE_MASTER_SPECIES
	SURFACE_SPECIES
	RATES
	END
------------------------------------
Reading input data for simulation 1.
------------------------------------

	SOLUTION_SPECIES
	 Na+ = Na+
	 log_k 0
	 gamma 1e10 0
	 Cl- = Cl-
	 log_k 0
	 gamma 1e10 0
	SURFACE_MASTER_SPECIES
	 Su_a Su_a
	 Su_b Su_b
	SURFACE_SPECIES
	 Su_a = Su_a
	 log_k 0
	 Su_b = Su_b
	 log_k 0
	SOLUTION 0
	 pH 7.0
	SOLUTION 1-5
	END
-------------------------------------------
Beginning of initial solution calculations.
-------------------------------------------

Initial solution 0.	

-----------------------------Solution composition------------------------------

	Elements           Molality       Moles

	Pure water     

----------------------------Description of solution----------------------------

                                       pH  =   7.000    
                                       pe  =   4.000    
       Specific Conductance (uS/cm, 25 oC) = 0
                          Density (g/cm3)  =   0.99705
                        Activity of water  =   1.000
                           Ionic strength  =  1.001e-007
                       Mass of water (kg)  =  1.000e+000
                 Total alkalinity (eq/kg)  =  1.082e-010
                    Total carbon (mol/kg)  =  0.000e+000
                       Total CO2 (mol/kg)  =  0.000e+000
                      Temperature (deg C)  =  25.000
                  Electrical balance (eq)  = -1.082e-010
 Percent error, 100*(Cat-|An|)/(Cat+|An|)  =  -0.05
                               Iterations  =   0
                                  Total H  = 1.110124e+002
                                  Total O  = 5.550622e+001

----------------------------Distribution of species----------------------------

                                                   Log       Log         Log 
   Species                 Molality    Activity  Molality  Activity     Gamma

   OH-                   1.002e-007  1.001e-007    -6.999    -6.999    -0.000
   H+                    1.001e-007  1.000e-007    -7.000    -7.000    -0.000
   H2O                   5.551e+001  1.000e+000     1.744     0.000     0.000
H(0)            1.416e-025
   H2                    7.079e-026  7.079e-026   -25.150   -25.150     0.000
O(0)            0.000e+000
   O2                    0.000e+000  0.000e+000   -42.080   -42.080     0.000

------------------------------Saturation indices-------------------------------

	Phase               SI log IAP  log KT

	H2(g)           -22.00  -25.15   -3.15  H2
	H2O(g)           -1.51    0.00    1.51  H2O
	O2(g)           -39.19  -42.08   -2.89  O2

Initial solution 1.	

-----------------------------Solution composition------------------------------

	Elements           Molality       Moles

	Pure water     

----------------------------Description of solution----------------------------

                                       pH  =   7.000    
                                       pe  =   4.000    
       Specific Conductance (uS/cm, 25 oC) = 0
                          Density (g/cm3)  =   0.99705
                        Activity of water  =   1.000
                           Ionic strength  =  1.001e-007
                       Mass of water (kg)  =  1.000e+000
                 Total alkalinity (eq/kg)  =  1.082e-010
                    Total carbon (mol/kg)  =  0.000e+000
                       Total CO2 (mol/kg)  =  0.000e+000
                      Temperature (deg C)  =  25.000
                  Electrical balance (eq)  = -1.082e-010
 Percent error, 100*(Cat-|An|)/(Cat+|An|)  =  -0.05
                               Iterations  =   0
                                  Total H  = 1.110124e+002
                                  Total O  = 5.550622e+001

----------------------------Distribution of species----------------------------

                                                   Log       Log         Log 
   Species                 Molality    Activity  Molality  Activity     Gamma

   OH-                   1.002e-007  1.001e-007    -6.999    -6.999    -0.000
   H+                    1.001e-007  1.000e-007    -7.000    -7.000    -0.000
   H2O                   5.551e+001  1.000e+000     1.744     0.000     0.000
H(0)            1.416e-025
   H2                    7.079e-026  7.079e-026   -25.150   -25.150     0.000
O(0)            0.000e+000
   O2                    0.000e+000  0.000e+000   -42.080   -42.080     0.000

------------------------------Saturation indices-------------------------------

	Phase               SI log IAP  log KT

	H2(g)           -22.00  -25.15   -3.15  H2
	H2O(g)           -1.51    0.00    1.51  H2O
	O2(g)           -39.19  -42.08   -2.89  O2

------------------
End of simulation.
------------------

------------------------------------
Reading input data for simulation 2.
------------------------------------

	SOLUTION 0
	 Na 1
	 Cl 0.1 charge
	 water 1
	SURFACE 0
	 Su_a 1e-3 1e4 1 Dw 1e-9
	 Su_b 1e-3
	 equilibrate 0
	 donnan 1e-17 #d 1 l 0.99 v 1# 1e-9
	SURFACE 4
	 equilibrate 4
	 donnan 1e-17 #d 1 l 0.99 v 1# 1e-9
	END
-------------------------------------------
Beginning of initial solution calculations.
-------------------------------------------

Initial solution 0.	

-----------------------------Solution composition------------------------------

	Elements           Molality       Moles

	Cl               1.000e-003  1.000e-003  Charge balance
	Na               1.000e-003  1.000e-003

----------------------------Description of solution----------------------------

                                       pH  =   7.000    
                                       pe  =   4.000    
       Specific Conductance (uS/cm, 25 oC) = 0
                          Density (g/cm3)  =   0.99705
                        Activity of water  =   1.000
                           Ionic strength  =  1.000e-003
                       Mass of water (kg)  =  1.000e+000
                 Total alkalinity (eq/kg)  =  3.681e-010
                    Total carbon (mol/kg)  =  0.000e+000
                       Total CO2 (mol/kg)  =  0.000e+000
                      Temperature (deg C)  =  25.000
                  Electrical balance (eq)  =  5.406e-017
 Percent error, 100*(Cat-|An|)/(Cat+|An|)  =   0.00
                               Iterations  =   4
                                  Total H  = 1.110124e+002
                                  Total O  = 5.550622e+001

----------------------------Distribution of species----------------------------

                                                   Log       Log         Log 
   Species                 Molality    Activity  Molality  Activity     Gamma

   OH-                   1.038e-007  1.001e-007    -6.984    -7.000    -0.016
   H+                    1.034e-007  1.000e-007    -6.985    -7.000    -0.015
   H2O                   5.551e+001  1.000e+000     1.744    -0.000     0.000
Cl              1.000e-003
   Cl-                   1.000e-003  1.000e-003    -3.000    -3.000    -0.000
H(0)            1.416e-025
   H2                    7.078e-026  7.079e-026   -25.150   -25.150     0.000
Na              1.000e-003
   Na+                   1.000e-003  1.000e-003    -3.000    -3.000    -0.000
   NaOH                  6.605e-011  6.607e-011   -10.180   -10.180     0.000
O(0)            0.000e+000
   O2                    0.000e+000  0.000e+000   -42.080   -42.080     0.000

------------------------------Saturation indices-------------------------------

	Phase               SI log IAP  log KT

	H2(g)           -22.00  -25.15   -3.15  H2
	H2O(g)           -1.51   -0.00    1.51  H2O
	Halite           -7.58   -6.00    1.58  NaCl
	O2(g)           -39.19  -42.08   -2.89  O2

------------------------------------------------------
Beginning of initial surface-composition calculations.
------------------------------------------------------

Surface 0.	

Su            
	 2.907e-022  Surface + diffuse layer charge, eq
	 0.000e+000  Surface charge, eq
	 0.000e+000  sigma, C/m**2
	-8.345e-019  psi, V
	 3.248e-017  -F*psi/RT
	 1.000e+000  exp(-F*psi/RT)
	 1.000e+004  specific area, m**2/g
	 1.000e+004  m**2 for  1.000e+000 g

	Water in diffuse layer: 1.000e-010 kg, 100.0% of total DDL-water.

	Total moles in diffuse layer (excluding water), Donnan calculation 

	Element       	     Moles
	Cl            	 1.0000e-013
	H             	 2.0727e-017
	Na            	 1.0000e-013
	O             	 1.0382e-017

Su_a          
	 1.000e-003  moles
	                                   Mole                     Log
	Species               Moles    Fraction    Molality    Molality

	Su_a             1.000e-003       1.000  1.000e-003      -3.000

Su_b          
	 1.000e-003  moles
	                                   Mole                     Log
	Species               Moles    Fraction    Molality    Molality

	Su_b             1.000e-003       1.000  1.000e-003      -3.000

Surface 4.	

-----------------------------------------
Beginning of batch-reaction calculations.
-----------------------------------------

Reaction step 1.

Using solution 0.	
Using surface 0.	Surface assemblage after simulation 2.

------------------------------Surface composition------------------------------

Su            
	 5.393e-027  Surface + diffuse layer charge, eq
	 0.000e+000  Surface charge, eq
	 0.000e+000  sigma, C/m**2
	-8.345e-019  psi, V
	 3.248e-017  -F*psi/RT
	 1.000e+000  exp(-F*psi/RT)
	 1.000e+004  specific area, m**2/g
	 1.000e+004  m**2 for  1.000e+000 g

	Water in diffuse layer: 1.000e-010 kg, 100.0% of total DDL-water.

	Total moles in diffuse layer (excluding water), Donnan calculation 

	Element       	     Moles
	Cl            	 1.0000e-013
	H             	 2.0727e-017
	Na            	 1.0000e-013
	O             	 1.0382e-017

Su_a          
	 1.000e-003  moles
	                                   Mole                     Log
	Species               Moles    Fraction    Molality    Molality

	Su_a             1.000e-003       1.000  1.000e-003      -3.000

Su_b          
	 1.000e-003  moles
	                                   Mole                     Log
	Species               Moles    Fraction    Molality    Molality

	Su_b             1.000e-003       1.000  1.000e-003      -3.000

-----------------------------Solution composition------------------------------

	Elements           Molality       Moles

	Cl               1.000e-003  1.000e-003
	Na               1.000e-003  1.000e-003

----------------------------Description of solution----------------------------

                                       pH  =   7.000      Charge balance
                                       pe  =   4.000      Adjusted to redox equilibrium
       Specific Conductance (uS/cm, 25 oC) = 0
                          Density (g/cm3)  =   0.99705
                        Activity of water  =   1.000
                           Ionic strength  =  1.000e-003
                       Mass of water (kg)  =  1.000e+000
                 Total alkalinity (eq/kg)  =  3.681e-010
                    Total carbon (mol/kg)  =  0.000e+000
                       Total CO2 (mol/kg)  =  0.000e+000
                      Temperature (deg C)  =  25.000
                  Electrical balance (eq)  =  5.406e-017
 Percent error, 100*(Cat-|An|)/(Cat+|An|)  =   0.00
                               Iterations  =   0
                                  Total H  = 1.110124e+002
                                  Total O  = 5.550622e+001

----------------------------Distribution of species----------------------------

                                                   Log       Log         Log 
   Species                 Molality    Activity  Molality  Activity     Gamma

   OH-                   1.038e-007  1.001e-007    -6.984    -7.000    -0.016
   H+                    1.034e-007  1.000e-007    -6.985    -7.000    -0.015
   H2O                   5.551e+001  1.000e+000     1.744    -0.000     0.000
Cl              1.000e-003
   Cl-                   1.000e-003  1.000e-003    -3.000    -3.000    -0.000
H(0)            1.416e-025
   H2                    7.078e-026  7.079e-026   -25.150   -25.150     0.000
Na              1.000e-003
   Na+                   1.000e-003  1.000e-003    -3.000    -3.000    -0.000
   NaOH                  6.605e-011  6.607e-011   -10.180   -10.180     0.000
O(0)            0.000e+000
   O2                    0.000e+000  0.000e+000   -42.080   -42.080     0.000

------------------------------Saturation indices-------------------------------

	Phase               SI log IAP  log KT

	H2(g)           -22.00  -25.15   -3.15  H2
	H2O(g)           -1.51   -0.00    1.51  H2O
	Halite           -7.58   -6.00    1.58  NaCl
	O2(g)           -39.19  -42.08   -2.89  O2

------------------
End of simulation.
------------------

------------------------------------
Reading input data for simulation 3.
------------------------------------

	PRINT
	 reset false
WARNING: Cell-lengths were read for 1 cells. Last value is used till cell 4.
WARNING: Dispersivities were read for 1 cells. Last value is used till cell 4.
