   Input file: sc6a
  Output file: sc6a.out
Database file: phreeqc.dat

------------------
Reading data base.
------------------

	SOLUTION_MASTER_SPECIES
	SOLUTION_SPECIES
	PHASES
	EXCHANGE_MASTER_SPECIES
	EXCHANGE_SPECIES
	SURFACE_MASTER_SPECIES
	SURFACE_SPECIES
	RATES
	END
------------------------------------
Reading input data for simulation 1.
------------------------------------

	SOLUTION_SPECIES
	 Na+ = Na+
	 log_k 0
	 gamma 1e10 0
	 Ca+2 = Ca+2
	 log_k 0
	 gamma 1e10 0
	 Cl- = Cl-
	 log_k 0
	 gamma 1e10 0
	 H2O + 0.01e- = H2O-0.01
	 log_k -9
	SURFACE_MASTER_SPECIES
	 Sua Sua
	 Sub Sub
	 Suc Suc
	SURFACE_SPECIES
	 Sua = Sua
	 log_k 0
	 Sub = Sub
	 log_k 0
	 Suc = Suc
	 log_k 0
	SURFACE_MASTER_SPECIES /* defined sorbed form of Hfo = Sorbedhfo */
	 Sorbedhfo_s Sorbedhfo_sOH
	 Sorbedhfo_w Sorbedhfo_wOH
	SURFACE_SPECIES
	 Sorbedhfo_sOH = Sorbedhfo_sOH
	 log_k 0.0
	 Sorbedhfo_sOH + H+ = Sorbedhfo_sOH2+
	 log_k 7.29
	 Sorbedhfo_sOH = Sorbedhfo_sO- + H+
	 log_k -8.93
	 Sorbedhfo_wOH = Sorbedhfo_wOH
	 log_k 0.0
	 Sorbedhfo_wOH + H+ = Sorbedhfo_wOH2+
	 log_k 7.29
	 Sorbedhfo_wOH = Sorbedhfo_wO- + H+
	 log_k -8.93
	 Sorbedhfo_sOH + Ca+2 = Sorbedhfo_sOHCa+2
	 log_k 4.97
	 Sorbedhfo_wOH + Ca+2 = Sorbedhfo_wOCa+ + H+
	 log_k -5.85
	 Sorbedhfo_sOH + Zn+2 = Sorbedhfo_sOZn+ + H+
	 log_k 0.99
	 Sorbedhfo_wOH + Zn+2 = Sorbedhfo_wOZn+ + H+
	 log_k -1.99
	SOLUTION 0-21
	END          
-------------------------------------------
Beginning of initial solution calculations.
-------------------------------------------

Initial solution 0.	

-----------------------------Solution composition------------------------------

	Elements           Molality       Moles

	Pure water     

----------------------------Description of solution----------------------------

                                       pH  =   7.000    
                                       pe  =   4.000    
       Specific Conductance (uS/cm, 25 oC) = 0
                          Density (g/cm3)  =   0.99705
                        Activity of water  =   1.000
                           Ionic strength  =  1.001e-007
                       Mass of water (kg)  =  1.000e+000
                 Total alkalinity (eq/kg)  =  1.082e-010
                    Total carbon (mol/kg)  =  0.000e+000
                       Total CO2 (mol/kg)  =  0.000e+000
                      Temperature (deg C)  =  25.000
                  Electrical balance (eq)  = -1.173e-010
 Percent error, 100*(Cat-|An|)/(Cat+|An|)  =  -0.06
                               Iterations  =   0
                                  Total H  = 1.110124e+002
                                  Total O  = 5.550622e+001

----------------------------Distribution of species----------------------------

                                                   Log       Log         Log 
   Species                 Molality    Activity  Molality  Activity     Gamma

   OH-                   1.002e-007  1.001e-007    -6.999    -6.999    -0.000
   H+                    1.001e-007  1.000e-007    -7.000    -7.000    -0.000
   H2O-0.01              9.120e-010  9.120e-010    -9.040    -9.040    -0.000
   H2O                   5.551e+001  1.000e+000     1.744     0.000     0.000
H(0)            1.416e-025
   H2                    7.079e-026  7.079e-026   -25.150   -25.150     0.000
O(0)            0.000e+000
   O2                    0.000e+000  0.000e+000   -42.080   -42.080     0.000

------------------------------Saturation indices-------------------------------

	Phase               SI log IAP  log KT

	H2(g)           -22.00  -25.15   -3.15  H2
	H2O(g)           -1.51    0.00    1.51  H2O
	O2(g)           -39.19  -42.08   -2.89  O2

------------------
End of simulation.
------------------

------------------------------------
Reading input data for simulation 2.
------------------------------------

	SOLUTION 0
	 Na 1
	 Ca 1e-3
	 Cl 1
	SURFACE 0
	 Sua 1e-3 1e4 1 Dw 1e-9
	 donnan 1e-12 #d 1 l 0.99 v 1# 1e-9
	 Sub 1e-3 1e4 1 Dw 1e-12
	 donnan 1e-12 #d 1 l 0.99 v 1# 1e-9
	 Hfo_w 97.5e-5 600 88e-3 Dw 1e-12
	 Hfo_s 2.5e-5
	 donnan 1e-12 #d 1 l 0.99 v 1# 1e-9
	 equilibrate 0
	END
-------------------------------------------
Beginning of initial solution calculations.
-------------------------------------------

Initial solution 0.	

-----------------------------Solution composition------------------------------

	Elements           Molality       Moles

	Ca               1.000e-006  1.000e-006
	Cl               1.000e-003  1.000e-003
	Na               1.000e-003  1.000e-003

----------------------------Description of solution----------------------------

                                       pH  =   7.000    
                                       pe  =   4.000    
       Specific Conductance (uS/cm, 25 oC) = 0
                          Density (g/cm3)  =   0.99705
                        Activity of water  =   1.000
                           Ionic strength  =  1.002e-003
                       Mass of water (kg)  =  1.000e+000
                 Total alkalinity (eq/kg)  =  3.702e-010
                    Total carbon (mol/kg)  =  0.000e+000
                       Total CO2 (mol/kg)  =  0.000e+000
                      Temperature (deg C)  =  25.000
                  Electrical balance (eq)  =  2.000e-006
 Percent error, 100*(Cat-|An|)/(Cat+|An|)  =   0.10
                               Iterations  =   1
                                  Total H  = 1.110124e+002
                                  Total O  = 5.550622e+001

----------------------------Distribution of species----------------------------

                                                   Log       Log         Log 
   Species                 Molality    Activity  Molality  Activity     Gamma

   OH-                   1.038e-007  1.001e-007    -6.984    -7.000    -0.016
   H+                    1.035e-007  1.000e-007    -6.985    -7.000    -0.015
   H2O-0.01              9.120e-010  9.120e-010    -9.040    -9.040    -0.000
   H2O                   5.551e+001  1.000e+000     1.744    -0.000     0.000
Ca              1.000e-006
   Ca+2                  1.000e-006  1.000e-006    -6.000    -6.000    -0.000
   CaOH+                 1.720e-012  1.660e-012   -11.765   -11.780    -0.015
Cl              1.000e-003
   Cl-                   1.000e-003  1.000e-003    -3.000    -3.000    -0.000
H(0)            1.416e-025
   H2                    7.078e-026  7.079e-026   -25.150   -25.150     0.000
Na              1.000e-003
   Na+                   1.000e-003  1.000e-003    -3.000    -3.000    -0.000
   NaOH                  6.605e-011  6.607e-011   -10.180   -10.180     0.000
O(0)            0.000e+000
   O2                    0.000e+000  0.000e+000   -42.080   -42.080     0.000

------------------------------Saturation indices-------------------------------

	Phase               SI log IAP  log KT

	H2(g)           -22.00  -25.15   -3.15  H2
	H2O(g)           -1.51   -0.00    1.51  H2O
	Halite           -7.58   -6.00    1.58  NaCl
	O2(g)           -39.19  -42.08   -2.89  O2

------------------------------------------------------
Beginning of initial surface-composition calculations.
------------------------------------------------------

Surface 0.	

Hfo           
	 8.554e-018  Surface + diffuse layer charge, eq
	 3.338e-006  Surface charge, eq
	 6.101e-003  sigma, C/m**2
	 6.530e-002  psi, V
	-2.542e+000  -F*psi/RT
	 7.874e-002  exp(-F*psi/RT)
	 6.000e+002  specific area, m**2/g
	 5.280e+001  m**2 for  8.800e-002 g

	Water in diffuse layer: 5.280e-008 kg,  0.3% of total DDL-water.

	Total moles in diffuse layer (excluding water), Donnan calculation 

	Element       	     Moles
	Ca            	 1.4647e-023
	Cl            	 3.3380e-006
	H             	 3.4634e-010
	Na            	 8.3866e-016
	O             	 3.4634e-010

Hfo_s         
	 2.500e-005  moles
	                                   Mole                     Log
	Species               Moles    Fraction    Molality    Molality

	Hfo_sOH          1.918e-005       0.767  1.918e-005      -4.717
	Hfo_sOH2+        2.945e-006       0.118  2.945e-006      -5.531
	Hfo_sO-          2.862e-006       0.114  2.862e-006      -5.543
	Hfo_sOHCa+2      1.110e-008       0.000  1.110e-008      -7.955

Hfo_w         
	 9.750e-004  moles
	                                   Mole                     Log
	Species               Moles    Fraction    Molality    Molality

	Hfo_wOH          7.484e-004       0.768  7.484e-004      -3.126
	Hfo_wOH2+        1.149e-004       0.118  1.149e-004      -3.940
	Hfo_wO-          1.117e-004       0.115  1.117e-004      -3.952
	Hfo_wOCa+        8.324e-010       0.000  8.324e-010      -9.080

Sua           
	-1.696e-024  Surface + diffuse layer charge, eq
	 0.000e+000  Surface charge, eq
	 0.000e+000  sigma, C/m**2
	 1.126e-022  psi, V
	-4.383e-021  -F*psi/RT
	 1.000e+000  exp(-F*psi/RT)
	 1.000e+004  specific area, m**2/g
	 1.000e+004  m**2 for  1.000e+000 g

	Water in diffuse layer: 1.000e-005 kg, 49.9% of total DDL-water.

	Total moles in diffuse layer (excluding water), Donnan calculation 

	Element       	     Moles
	Ca            	 9.9801e-012
	Cl            	 1.0010e-008
	H             	 2.0910e-012
	Na            	 9.9900e-009
	O             	 1.0484e-012

Sua           
	 1.000e-003  moles
	                                   Mole                     Log
	Species               Moles    Fraction    Molality    Molality

	Sua              1.000e-003       1.000  1.000e-003      -3.000

Sub           
	-1.696e-024  Surface + diffuse layer charge, eq
	 0.000e+000  Surface charge, eq
	 0.000e+000  sigma, C/m**2
	 1.126e-022  psi, V
	-4.383e-021  -F*psi/RT
	 1.000e+000  exp(-F*psi/RT)
	 1.000e+004  specific area, m**2/g
	 1.000e+004  m**2 for  1.000e+000 g

	Water in diffuse layer: 1.000e-005 kg, 49.9% of total DDL-water.

	Total moles in diffuse layer (excluding water), Donnan calculation 

	Element       	     Moles
	Ca            	 9.9801e-012
	Cl            	 1.0010e-008
	H             	 2.0910e-012
	Na            	 9.9900e-009
	O             	 1.0484e-012

Sub           
	 1.000e-003  moles
	                                   Mole                     Log
	Species               Moles    Fraction    Molality    Molality

	Sub              1.000e-003       1.000  1.000e-003      -3.000

-----------------------------------------
Beginning of batch-reaction calculations.
-----------------------------------------

Reaction step 1.

Using solution 0.	
Using surface 0.	Surface assemblage after simulation 2.

------------------------------Surface composition------------------------------

Hfo           
	-1.271e-012  Surface + diffuse layer charge, eq
	 3.338e-006  Surface charge, eq
	 6.101e-003  sigma, C/m**2
	 6.530e-002  psi, V
	-2.542e+000  -F*psi/RT
	 7.874e-002  exp(-F*psi/RT)
	 6.000e+002  specific area, m**2/g
	 5.280e+001  m**2 for  8.800e-002 g

	Water in diffuse layer: 5.280e-008 kg,  0.3% of total DDL-water.

	Total moles in diffuse layer (excluding water), Donnan calculation 

	Element       	     Moles
	Ca            	 1.4647e-023
	Cl            	 3.3380e-006
	H             	 3.4634e-010
	Na            	 8.3866e-016
	O             	 3.4634e-010

Hfo_s         
	 2.500e-005  moles
	                                   Mole                     Log
	Species               Moles    Fraction    Molality    Molality

	Hfo_sOH          1.918e-005       0.767  1.918e-005      -4.717
	Hfo_sOH2+        2.945e-006       0.118  2.945e-006      -5.531
	Hfo_sO-          2.862e-006       0.114  2.862e-006      -5.543
	Hfo_sOHCa+2      1.110e-008       0.000  1.110e-008      -7.955

Hfo_w         
	 9.750e-004  moles
	                                   Mole                     Log
	Species               Moles    Fraction    Molality    Molality

	Hfo_wOH          7.484e-004       0.768  7.484e-004      -3.126
	Hfo_wOH2+        1.149e-004       0.118  1.149e-004      -3.940
	Hfo_wO-          1.117e-004       0.115  1.117e-004      -3.952
	Hfo_wOCa+        8.324e-010       0.000  8.324e-010      -9.080

Sua           
	-8.765e-018  Surface + diffuse layer charge, eq
	 0.000e+000  Surface charge, eq
	 0.000e+000  sigma, C/m**2
	 1.167e-015  psi, V
	-4.542e-014  -F*psi/RT
	 1.000e+000  exp(-F*psi/RT)
	 1.000e+004  specific area, m**2/g
	 1.000e+004  m**2 for  1.000e+000 g

	Water in diffuse layer: 1.000e-005 kg, 49.9% of total DDL-water.

	Total moles in diffuse layer (excluding water), Donnan calculation 

	Element       	     Moles
	Ca            	 9.9801e-012
	Cl            	 1.0010e-008
	H             	 2.0910e-012
	Na            	 9.9900e-009
	O             	 1.0484e-012

Sua           
	 1.000e-003  moles
	                                   Mole                     Log
	Species               Moles    Fraction    Molality    Molality

	Sua              1.000e-003       1.000  1.000e-003      -3.000

Sub           
	-8.765e-018  Surface + diffuse layer charge, eq
	 0.000e+000  Surface charge, eq
	 0.000e+000  sigma, C/m**2
	 1.167e-015  psi, V
	-4.542e-014  -F*psi/RT
	 1.000e+000  exp(-F*psi/RT)
	 1.000e+004  specific area, m**2/g
	 1.000e+004  m**2 for  1.000e+000 g

	Water in diffuse layer: 1.000e-005 kg, 49.9% of total DDL-water.

	Total moles in diffuse layer (excluding water), Donnan calculation 

	Element       	     Moles
	Ca            	 9.9801e-012
	Cl            	 1.0010e-008
	H             	 2.0910e-012
	Na            	 9.9900e-009
	O             	 1.0484e-012

Sub           
	 1.000e-003  moles
	                                   Mole                     Log
	Species               Moles    Fraction    Molality    Molality

	Sub              1.000e-003       1.000  1.000e-003      -3.000

-----------------------------Solution composition------------------------------

	Elements           Molality       Moles

	Ca               1.000e-006  1.000e-006
	Cl               1.000e-003  1.000e-003
	Na               1.000e-003  1.000e-003

----------------------------Description of solution----------------------------

                                       pH  =   7.000      Charge balance
                                       pe  =   3.981      Adjusted to redox equilibrium
       Specific Conductance (uS/cm, 25 oC) = 0
                          Density (g/cm3)  =   0.99705
                        Activity of water  =   1.000
                           Ionic strength  =  1.002e-003
                       Mass of water (kg)  =  1.000e+000
                 Total alkalinity (eq/kg)  =  3.701e-010
                    Total carbon (mol/kg)  =  0.000e+000
                       Total CO2 (mol/kg)  =  0.000e+000
                      Temperature (deg C)  =  25.000
                  Electrical balance (eq)  =  2.000e-006
 Percent error, 100*(Cat-|An|)/(Cat+|An|)  =   0.10
                               Iterations  =   0
                                  Total H  = 1.110124e+002
                                  Total O  = 5.550622e+001

----------------------------Distribution of species----------------------------

                                                   Log       Log         Log 
   Species                 Molality    Activity  Molality  Activity     Gamma

   OH-                   1.038e-007  1.001e-007    -6.984    -7.000    -0.016
   H+                    1.035e-007  1.000e-007    -6.985    -7.000    -0.015
   H2O-0.01              9.124e-010  9.124e-010    -9.040    -9.040    -0.000
   H2O                   5.551e+001  1.000e+000     1.744    -0.000     0.000
Ca              1.000e-006
   Ca+2                  1.000e-006  1.000e-006    -6.000    -6.000    -0.000
   CaOH+                 1.720e-012  1.660e-012   -11.765   -11.780    -0.015
Cl              1.000e-003
   Cl-                   1.000e-003  1.000e-003    -3.000    -3.000    -0.000
H(0)            1.545e-025
   H2                    7.724e-026  7.726e-026   -25.112   -25.112     0.000
Na              1.000e-003
   Na+                   1.000e-003  1.000e-003    -3.000    -3.000    -0.000
   NaOH                  6.605e-011  6.607e-011   -10.180   -10.180     0.000
O(0)            0.000e+000
   O2                    0.000e+000  0.000e+000   -42.156   -42.156     0.000

------------------------------Saturation indices-------------------------------

	Phase               SI log IAP  log KT

	H2(g)           -21.96  -25.11   -3.15  H2
	H2O(g)           -1.51   -0.00    1.51  H2O
	Halite           -7.58   -6.00    1.58  NaCl
	O2(g)           -39.26  -42.16   -2.89  O2

------------------
End of simulation.
------------------

------------------------------------
Reading input data for simulation 3.
------------------------------------

	PRINT
	 reset false
WARNING: Cell-lengths were read for 1 cells. Last value is used till cell 3.
WARNING: Dispersivities were read for 1 cells. Last value is used till cell 3.
----------------------------------User print-----------------------------------


----------------------------------User print-----------------------------------


----------------------------------User print-----------------------------------


----------------------------------User print-----------------------------------


----------------------------------User print-----------------------------------


----------------------------------User print-----------------------------------


----------------------------------User print-----------------------------------

Adapting surface in            1 

------------------------------Surface composition------------------------------

Hfo           
	-4.130e-014  Surface + diffuse layer charge, eq
	 3.202e-006  Surface charge, eq
	 5.855e-003  sigma, C/m**2
	 7.918e-002  psi, V
	-3.082e+000  -F*psi/RT
	 4.586e-002  exp(-F*psi/RT)
	 6.000e+002  specific area, m**2/g
	 5.277e+001  m**2 for  8.796e-002 g

	Water in diffuse layer: 5.277e-008 kg,  0.4% of total DDL-water.

	Total moles in diffuse layer (excluding water), Donnan calculation 

	Element       	     Moles
	Ca            	 2.0474e-024
	Cl            	 3.2016e-006
	H             	 3.8359e-010
	Na            	 2.1844e-016
	O             	 3.8359e-010

Hfo_s         
	 2.499e-005  moles
	                                   Mole                     Log
	Species               Moles    Fraction    Molality    Molality

	Hfo_sOH          1.918e-005       0.768  1.918e-005      -4.717
	Hfo_sOH2+        2.943e-006       0.118  2.943e-006      -5.531
	Hfo_sO-          2.863e-006       0.115  2.863e-006      -5.543
	Hfo_sOHCa+2      1.923e-009       0.000  1.923e-009      -8.716

Hfo_w         
	 9.745e-004  moles
	                                   Mole                     Log
	Species               Moles    Fraction    Molality    Molality

	Hfo_wOH          7.480e-004       0.768  7.480e-004      -3.126
	Hfo_wOH2+        1.148e-004       0.118  1.148e-004      -3.940
	Hfo_wO-          1.117e-004       0.115  1.117e-004      -3.952
	Hfo_wOCa+        1.442e-010       0.000  1.442e-010      -9.841

Sua           
	 9.929e-018  Surface + diffuse layer charge, eq
	 0.000e+000  Surface charge, eq
	 0.000e+000  sigma, C/m**2
	-3.743e-015  psi, V
	 1.457e-013  -F*psi/RT
	 1.000e+000  exp(-F*psi/RT)
	 1.000e+004  specific area, m**2/g
	 4.999e+003  m**2 for  4.999e-001 g

	Water in diffuse layer: 4.999e-006 kg, 33.2% of total DDL-water.

	Total moles in diffuse layer (excluding water), Donnan calculation 

	Element       	     Moles
	Ca            	 2.5428e-012
	Cl            	 2.5019e-009
	H             	 1.1864e-012
	Na            	 2.4963e-009
	O             	 3.0443e-013

Sua           
	 4.999e-004  moles
	                                   Mole                     Log
	Species               Moles    Fraction    Molality    Molality

	Sua              4.999e-004       1.000  4.999e-004      -3.301

Sub           
	 1.985e-017  Surface + diffuse layer charge, eq
	 0.000e+000  Surface charge, eq
	 0.000e+000  sigma, C/m**2
	-3.743e-015  psi, V
	 1.457e-013  -F*psi/RT
	 1.000e+000  exp(-F*psi/RT)
	 1.000e+004  specific area, m**2/g
	 9.995e+003  m**2 for  9.995e-001 g

	Water in diffuse layer: 9.995e-006 kg, 66.4% of total DDL-water.

	Total moles in diffuse layer (excluding water), Donnan calculation 

	Element       	     Moles
	Ca            	 5.0844e-012
	Cl            	 5.0026e-009
	H             	 2.3723e-012
	Na            	 4.9913e-009
	O             	 6.0871e-013

Sub           
	 9.995e-004  moles
	                                   Mole                     Log
	Species               Moles    Fraction    Molality    Molality

	Sub              9.995e-004       1.000  9.995e-004      -3.000

----------------------------------User print-----------------------------------

Adapting surface in            5 

------------------------------Surface composition------------------------------

Hfo           
	 5.747e-022  Surface + diffuse layer charge, eq
	 1.181e-009  Surface charge, eq
	 4.315e-003  sigma, C/m**2
	 6.531e-002  psi, V
	-2.542e+000  -F*psi/RT
	 7.869e-002  exp(-F*psi/RT)
	 6.000e+002  specific area, m**2/g
	 2.640e-002  m**2 for  4.400e-005 g

	Water in diffuse layer: 2.640e-011 kg,  0.0% of total DDL-water.

	Total moles in diffuse layer (excluding water), Donnan calculation 

	Element       	     Moles
	Ca            	 1.9008e-027
	Cl            	 1.1803e-009
	H             	 2.4313e-013
	Na            	 1.4838e-019
	O             	 2.4313e-013

Hfo_s         
	 1.250e-008  moles
	                                   Mole                     Log
	Species               Moles    Fraction    Molality    Molality

	Hfo_sOH          9.593e-009       0.767  9.593e-009      -8.018
	Hfo_sOH2+        1.467e-009       0.117  1.467e-009      -8.834
	Hfo_sO-          1.437e-009       0.115  1.437e-009      -8.842
	Hfo_sOHCa+2      2.765e-012       0.000  2.765e-012     -11.558

Hfo_w         
	 4.875e-007  moles
	                                   Mole                     Log
	Species               Moles    Fraction    Molality    Molality

	Hfo_wOH          3.742e-007       0.768  3.742e-007      -6.427
	Hfo_wOH2+        5.721e-008       0.117  5.721e-008      -7.243
	Hfo_wO-          5.607e-008       0.115  5.607e-008      -7.251
	Hfo_wOCa+        2.082e-013       0.000  2.082e-013     -12.681

Sua           
	-6.902e-025  Surface + diffuse layer charge, eq
	 0.000e+000  Surface charge, eq
	 0.000e+000  sigma, C/m**2
	 3.985e-022  psi, V
	-1.551e-020  -F*psi/RT
	 1.000e+000  exp(-F*psi/RT)
	 1.000e+004  specific area, m**2/g
	 4.998e+003  m**2 for  4.998e-001 g

	Water in diffuse layer: 4.998e-006 kg, 99.9% of total DDL-water.

	Total moles in diffuse layer (excluding water), Donnan calculation 

	Element       	     Moles
	Ca            	 2.4933e-012
	Cl            	 2.5008e-009
	H             	 1.0349e-012
	Na            	 2.4958e-009
	O             	 5.1986e-013

Sua           
	 4.998e-004  moles
	                                   Mole                     Log
	Species               Moles    Fraction    Molality    Molality

	Sua              4.998e-004       1.000  4.998e-004      -3.301

Sub           
	-3.695e-028  Surface + diffuse layer charge, eq
	 0.000e+000  Surface charge, eq
	 0.000e+000  sigma, C/m**2
	 7.202e-022  psi, V
	-2.803e-020  -F*psi/RT
	 1.000e+000  exp(-F*psi/RT)
	 1.000e+004  specific area, m**2/g
	 5.000e+000  m**2 for  5.000e-004 g

	Water in diffuse layer: 5.000e-009 kg,  0.1% of total DDL-water.

	Total moles in diffuse layer (excluding water), Donnan calculation 

	Element       	     Moles
	Ca            	 2.4941e-015
	Cl            	 2.5015e-012
	H             	 1.0352e-015
	Na            	 2.4965e-012
	O             	 5.2001e-016

Sub           
	 5.000e-007  moles
	                                   Mole                     Log
	Species               Moles    Fraction    Molality    Molality

	Sub              5.000e-007       1.000  5.000e-007      -6.301

----------------------------------User print-----------------------------------

Adapting surface in            2 

------------------------------Surface composition------------------------------

Hfo           
	-4.918e-019  Surface + diffuse layer charge, eq
	 1.595e-014  Surface charge, eq
	 9.724e-005  sigma, C/m**2
	 6.566e-002  psi, V
	-2.556e+000  -F*psi/RT
	 7.764e-002  exp(-F*psi/RT)
	 6.000e+002  specific area, m**2/g
	 1.583e-005  m**2 for  2.639e-008 g

	Water in diffuse layer: 1.583e-014 kg,  0.0% of total DDL-water.

	Total moles in diffuse layer (excluding water), Donnan calculation 

	Element       	     Moles
	Ca            	 1.1239e-036
	Cl            	 9.5704e-015
	H             	 6.3842e-015
	Na            	 7.4611e-028
	O             	 6.3842e-015

Hfo_s         
	 7.496e-012  moles
	                                   Mole                     Log
	Species               Moles    Fraction    Molality    Molality

	Hfo_sOH          5.754e-012       0.768  5.754e-012     -11.240
	Hfo_sOH2+        8.712e-013       0.116  8.712e-013     -12.060
	Hfo_sO-          8.708e-013       0.116  8.708e-013     -12.060
	Hfo_sOHCa+2      4.847e-019       0.000  4.847e-019     -18.315

Hfo_w         
	 2.924e-010  moles
	                                   Mole                     Log
	Species               Moles    Fraction    Molality    Molality

	Hfo_wOH          2.244e-010       0.768  2.244e-010      -9.649
	Hfo_wOH2+        3.398e-011       0.116  3.398e-011     -10.469
	Hfo_wO-          3.396e-011       0.116  3.396e-011     -10.469
	Hfo_wOCa+        3.685e-020       0.000  3.685e-020     -19.434

Sua           
	 1.649e-022  Surface + diffuse layer charge, eq
	 0.000e+000  Surface charge, eq
	 0.000e+000  sigma, C/m**2
	-1.337e-014  psi, V
	 5.205e-013  -F*psi/RT
	 1.000e+000  exp(-F*psi/RT)
	 1.000e+004  specific area, m**2/g
	 1.500e+000  m**2 for  1.500e-004 g

	Water in diffuse layer: 1.500e-009 kg, 99.8% of total DDL-water.

	Total moles in diffuse layer (excluding water), Donnan calculation 

	Element       	     Moles
	Ca            	 2.2468e-019
	Cl            	 2.2519e-016
	H             	 3.0309e-016
	Na            	 2.2485e-016
	O             	 1.5159e-016

Sua           
	 1.500e-007  moles
	                                   Mole                     Log
	Species               Moles    Fraction    Molality    Molality

	Sua              1.500e-007       1.000  1.500e-007      -6.824

Sub           
	 3.296e-025  Surface + diffuse layer charge, eq
	 0.000e+000  Surface charge, eq
	 0.000e+000  sigma, C/m**2
	-1.337e-014  psi, V
	 5.205e-013  -F*psi/RT
	 1.000e+000  exp(-F*psi/RT)
	 1.000e+004  specific area, m**2/g
	 2.999e-003  m**2 for  2.999e-007 g

	Water in diffuse layer: 2.999e-012 kg,  0.2% of total DDL-water.

	Total moles in diffuse layer (excluding water), Donnan calculation 

	Element       	     Moles
	Ca            	 4.4912e-022
	Cl            	 4.5014e-019
	H             	 6.0585e-019
	Na            	 4.4946e-019
	O             	 3.0302e-019

Sub           
	 2.999e-010  moles
	                                   Mole                     Log
	Species               Moles    Fraction    Molality    Molality

	Sub              2.999e-010       1.000  2.999e-010      -9.523

----------------------------------User print-----------------------------------

Adapting surface in            6 

------------------------------Surface composition------------------------------

Hfo           
	 3.986e-022  Surface + diffuse layer charge, eq
	 7.981e-018  Surface charge, eq
	 9.724e-005  sigma, C/m**2
	 6.566e-002  psi, V
	-2.556e+000  -F*psi/RT
	 7.764e-002  exp(-F*psi/RT)
	 6.000e+002  specific area, m**2/g
	 7.920e-009  m**2 for  1.320e-011 g

	Water in diffuse layer: 7.920e-018 kg,  0.0% of total DDL-water.

	Total moles in diffuse layer (excluding water), Donnan calculation 

	Element       	     Moles
	Ca            	 5.6219e-040
	Cl            	 4.7871e-018
	H             	 3.1936e-018
	Na            	 3.7318e-031
	O             	 3.1936e-018

Hfo_s         
	 3.750e-015  moles
	                                   Mole                     Log
	Species               Moles    Fraction    Molality    Molality

	Hfo_sOH          2.884e-015       0.769  2.884e-015     -14.540
	Hfo_sOH2+        4.366e-016       0.116  4.366e-016     -15.360
	Hfo_sO-          4.364e-016       0.116  4.364e-016     -15.360
	Hfo_sOHCa+2      2.429e-022       0.000  2.429e-022     -21.615

Hfo_w         
	 1.462e-013  moles
	                                   Mole                     Log
	Species               Moles    Fraction    Molality    Molality

	Hfo_wOH          1.123e-013       0.768  1.123e-013     -12.950
	Hfo_wOH2+        1.700e-014       0.116  1.700e-014     -13.770
	Hfo_wO-          1.699e-014       0.116  1.699e-014     -13.770
	Hfo_wOCa+        1.843e-023       0.000  1.843e-023     -22.734

Sua           
	-1.972e-031  Surface + diffuse layer charge, eq
	 0.000e+000  Surface charge, eq
	 0.000e+000  sigma, C/m**2
	 8.685e-024  psi, V
	-3.381e-022  -F*psi/RT
	 1.000e+000  exp(-F*psi/RT)
	 1.000e+004  specific area, m**2/g
	 1.500e+000  m**2 for  1.500e-004 g

	Water in diffuse layer: 1.500e-009 kg, 100.0% of total DDL-water.

	Total moles in diffuse layer (excluding water), Donnan calculation 

	Element       	     Moles
	Ca            	 2.2464e-019
	Cl            	 2.2515e-016
	H             	 3.0305e-016
	Na            	 2.2481e-016
	O             	 1.5157e-016

Sua           
	 1.500e-007  moles
	                                   Mole                     Log
	Species               Moles    Fraction    Molality    Molality

	Sua              1.500e-007       1.000  1.500e-007      -6.824

Sub           
	-2.821e-037  Surface + diffuse layer charge, eq
	 0.000e+000  Surface charge, eq
	 0.000e+000  sigma, C/m**2
	 1.182e-023  psi, V
	-4.601e-022  -F*psi/RT
	 1.000e+000  exp(-F*psi/RT)
	 1.000e+004  specific area, m**2/g
	 1.500e-006  m**2 for  1.500e-010 g

	Water in diffuse layer: 1.500e-015 kg,  0.0% of total DDL-water.

	Total moles in diffuse layer (excluding water), Donnan calculation 

	Element       	     Moles
	Ca            	 2.2464e-025
	Cl            	 2.2515e-022
	H             	 3.0305e-022
	Na            	 2.2481e-022
	O             	 1.5157e-022

Sub           
	 1.500e-013  moles
	                                   Mole                     Log
	Species               Moles    Fraction    Molality    Molality

	Sub              1.500e-013       1.000  1.500e-013     -12.824

----------------------------------User print-----------------------------------

Adapting surface in            3 

----------------------------------User print-----------------------------------

Adapting surface in            7 

WARNING: MCD found more than 1 fixed surface with a DDL,
	 uses the 1st in alphabetical order: Sub.
----------------------------------User print-----------------------------------

Adapting surface in            1 

------------------------------Surface composition------------------------------

Hfo           
	-2.173e-012  Surface + diffuse layer charge, eq
	 3.265e-006  Surface charge, eq
	 5.970e-003  sigma, C/m**2
	 7.074e-002  psi, V
	-2.754e+000  -F*psi/RT
	 6.370e-002  exp(-F*psi/RT)
	 6.000e+002  specific area, m**2/g
	 5.277e+001  m**2 for  8.794e-002 g

	Water in diffuse layer: 5.277e-008 kg,  0.2% of total DDL-water.

	Total moles in diffuse layer (excluding water), Donnan calculation 

	Element       	     Moles
	Ca            	 6.5378e-024
	Cl            	 3.2642e-006
	H             	 3.6388e-010
	Na            	 4.8175e-016
	O             	 3.6388e-010

Hfo_s         
	 2.498e-005  moles
	                                   Mole                     Log
	Species               Moles    Fraction    Molality    Molality

	Hfo_sOH          1.917e-005       0.767  1.917e-005      -4.717
	Hfo_sOH2+        2.943e-006       0.118  2.943e-006      -5.531
	Hfo_sO-          2.862e-006       0.115  2.862e-006      -5.543
	Hfo_sOHCa+2      5.498e-009       0.000  5.498e-009      -8.260

Hfo_w         
	 9.744e-004  moles
	                                   Mole                     Log
	Species               Moles    Fraction    Molality    Molality

	Hfo_wOH          7.479e-004       0.768  7.479e-004      -3.126
	Hfo_wOH2+        1.148e-004       0.118  1.148e-004      -3.940
	Hfo_wO-          1.116e-004       0.115  1.116e-004      -3.952
	Hfo_wOCa+        4.123e-010       0.000  4.123e-010      -9.385

Sua           
	 1.281e-015  Surface + diffuse layer charge, eq
	 0.000e+000  Surface charge, eq
	 0.000e+000  sigma, C/m**2
	-3.950e-013  psi, V
	 1.537e-011  -F*psi/RT
	 1.000e+000  exp(-F*psi/RT)
	 1.000e+004  specific area, m**2/g
	 4.999e+003  m**2 for  4.999e-001 g

	Water in diffuse layer: 4.999e-006 kg, 16.6% of total DDL-water.

	Total moles in diffuse layer (excluding water), Donnan calculation 

	Element       	     Moles
	Ca            	 3.7754e-012
	Cl            	 3.7529e-009
	H             	 1.0633e-012
	Na            	 3.7451e-009
	O             	 4.2311e-013

Sua           
	 4.999e-004  moles
	                                   Mole                     Log
	Species               Moles    Fraction    Molality    Molality

	Sua              4.999e-004       1.000  4.999e-004      -3.301

Sub           
	 6.402e-015  Surface + diffuse layer charge, eq
	 0.000e+000  Surface charge, eq
	 0.000e+000  sigma, C/m**2
	-3.950e-013  psi, V
	 1.537e-011  -F*psi/RT
	 1.000e+000  exp(-F*psi/RT)
	 1.000e+004  specific area, m**2/g
	 2.499e+004  m**2 for  2.499e+000 g

	Water in diffuse layer: 2.499e-005 kg, 83.1% of total DDL-water.

	Total moles in diffuse layer (excluding water), Donnan calculation 

	Element       	     Moles
	Ca            	 1.8874e-011
	Cl            	 1.8762e-008
	H             	 5.3157e-012
	Na            	 1.8723e-008
	O             	 2.1152e-012

Sub           
	 2.499e-003  moles
	                                   Mole                     Log
	Species               Moles    Fraction    Molality    Molality

	Sub              2.499e-003       1.000  2.499e-003      -2.602

Sorbedhfo     
	-1.087e-012  Surface + diffuse layer charge, eq
	 1.633e-006  Surface charge, eq
	 5.970e-003  sigma, C/m**2
	 7.074e-002  psi, V
	-2.754e+000  -F*psi/RT
	 6.370e-002  exp(-F*psi/RT)
	 6.000e+002  specific area, m**2/g
	 2.639e+001  m**2 for  4.398e-002 g

	Water in diffuse layer: 2.639e-008 kg,  0.1% of total DDL-water.

	Total moles in diffuse layer (excluding water), Donnan calculation 

	Element       	     Moles
	Ca            	 3.2694e-024
	Cl            	 1.6323e-006
	H             	 1.8197e-010
	Na            	 2.4091e-016
	O             	 1.8197e-010

Sorbedhfo_s   
	 1.249e-005  moles
	                                   Mole                     Log
	Species               Moles    Fraction    Molality    Molality

	Sorbedhfo_sOH    9.588e-006       0.767  9.588e-006      -5.018
	Sorbedhfo_sOH2+  1.472e-006       0.118  1.472e-006      -5.832
	Sorbedhfo_sO-    1.431e-006       0.115  1.431e-006      -5.844
	Sorbedhfo_sOHCa+2  2.749e-009       0.000  2.749e-009      -8.561

Sorbedhfo_w   
	 4.873e-004  moles
	                                   Mole                     Log
	Species               Moles    Fraction    Molality    Molality

	Sorbedhfo_wOH    3.740e-004       0.768  3.740e-004      -3.427
	Sorbedhfo_wOH2+  5.741e-005       0.118  5.741e-005      -4.241
	Sorbedhfo_wO-    5.582e-005       0.115  5.582e-005      -4.253
	Sorbedhfo_wOCa+  2.062e-010       0.000  2.062e-010      -9.686

----------------------------------User print-----------------------------------

Adapting surface in            5 

------------------------------Surface composition------------------------------

Sorbedhfo     
	-1.902e-016  Surface + diffuse layer charge, eq
	 6.985e-010  Surface charge, eq
	 5.106e-003  sigma, C/m**2
	 6.381e-002  psi, V
	-2.484e+000  -F*psi/RT
	 8.343e-002  exp(-F*psi/RT)
	 6.000e+002  specific area, m**2/g
	 1.320e-002  m**2 for  2.200e-005 g

	Water in diffuse layer: 1.320e-011 kg,  0.0% of total DDL-water.

	Total moles in diffuse layer (excluding water), Donnan calculation 

	Element       	     Moles
	Ca            	 2.2343e-027
	Cl            	 6.9837e-010
	H             	 1.0206e-013
	Na            	 1.4095e-019
	O             	 1.0206e-013

Sorbedhfo_s   
	 6.250e-009  moles
	                                   Mole                     Log
	Species               Moles    Fraction    Molality    Molality

	Sorbedhfo_sOH    4.796e-009       0.767  4.796e-009      -8.319
	Sorbedhfo_sOH2+  7.346e-010       0.118  7.346e-010      -9.134
	Sorbedhfo_sO-    7.172e-010       0.115  7.172e-010      -9.144
	Sorbedhfo_sOHCa+2  2.323e-012       0.000  2.323e-012     -11.634

Sorbedhfo_w   
	 2.437e-007  moles
	                                   Mole                     Log
	Species               Moles    Fraction    Molality    Molality

	Sorbedhfo_wOH    1.871e-007       0.768  1.871e-007      -6.728
	Sorbedhfo_wOH2+  2.866e-008       0.118  2.866e-008      -7.543
	Sorbedhfo_wO-    2.798e-008       0.115  2.798e-008      -7.553
	Sorbedhfo_wOCa+  1.746e-013       0.000  1.746e-013     -12.758

Sua           
	 3.415e-018  Surface + diffuse layer charge, eq
	 0.000e+000  Surface charge, eq
	 0.000e+000  sigma, C/m**2
	-1.049e-015  psi, V
	 4.084e-014  -F*psi/RT
	 1.000e+000  exp(-F*psi/RT)
	 1.000e+004  specific area, m**2/g
	 4.999e+003  m**2 for  4.999e-001 g

	Water in diffuse layer: 4.999e-006 kg, 50.0% of total DDL-water.

	Total moles in diffuse layer (excluding water), Donnan calculation 

	Element       	     Moles
	Ca            	 3.7273e-012
	Cl            	 3.7521e-009
	H             	 1.0426e-012
	Na            	 3.7447e-009
	O             	 5.5315e-013

Sua           
	 4.999e-004  moles
	                                   Mole                     Log
	Species               Moles    Fraction    Molality    Molality

	Sua              4.999e-004       1.000  4.999e-004      -3.301

Sub           
	 3.418e-018  Surface + diffuse layer charge, eq
	 0.000e+000  Surface charge, eq
	 0.000e+000  sigma, C/m**2
	-1.049e-015  psi, V
	 4.084e-014  -F*psi/RT
	 1.000e+000  exp(-F*psi/RT)
	 1.000e+004  specific area, m**2/g
	 5.003e+003  m**2 for  5.003e-001 g

	Water in diffuse layer: 5.003e-006 kg, 50.0% of total DDL-water.

	Total moles in diffuse layer (excluding water), Donnan calculation 

	Element       	     Moles
	Ca            	 3.7305e-012
	Cl            	 3.7552e-009
	H             	 1.0435e-012
	Na            	 3.7478e-009
	O             	 5.5362e-013

Sub           
	 5.003e-004  moles
	                                   Mole                     Log
	Species               Moles    Fraction    Molality    Molality

	Sub              5.003e-004       1.000  5.003e-004      -3.301

Hfo           
	-5.704e-016  Surface + diffuse layer charge, eq
	 2.095e-009  Surface charge, eq
	 5.106e-003  sigma, C/m**2
	 6.381e-002  psi, V
	-2.484e+000  -F*psi/RT
	 8.343e-002  exp(-F*psi/RT)
	 6.000e+002  specific area, m**2/g
	 3.959e-002  m**2 for  6.598e-005 g

	Water in diffuse layer: 3.959e-011 kg,  0.0% of total DDL-water.

	Total moles in diffuse layer (excluding water), Donnan calculation 

	Element       	     Moles
	Ca            	 6.7011e-027
	Cl            	 2.0946e-009
	H             	 3.0609e-013
	Na            	 4.2275e-019
	O             	 3.0609e-013

Hfo_s         
	 1.874e-008  moles
	                                   Mole                     Log
	Species               Moles    Fraction    Molality    Molality

	Hfo_sOH          1.438e-008       0.767  1.438e-008      -7.842
	Hfo_sOH2+        2.203e-009       0.118  2.203e-009      -8.657
	Hfo_sO-          2.151e-009       0.115  2.151e-009      -8.667
	Hfo_sOHCa+2      6.967e-012       0.000  6.967e-012     -11.157

Hfo_w         
	 7.310e-007  moles
	                                   Mole                     Log
	Species               Moles    Fraction    Molality    Molality

	Hfo_wOH          5.611e-007       0.768  5.611e-007      -6.251
	Hfo_wOH2+        8.595e-008       0.118  8.595e-008      -7.066
	Hfo_wO-          8.392e-008       0.115  8.392e-008      -7.076
	Hfo_wOCa+        5.237e-013       0.000  5.237e-013     -12.281

----------------------------------User print-----------------------------------

Adapting surface in            2 

------------------------------Surface composition------------------------------

Sua           
	 4.339e-022  Surface + diffuse layer charge, eq
	 0.000e+000  Surface charge, eq
	 0.000e+000  sigma, C/m**2
	-1.529e-015  psi, V
	 5.953e-014  -F*psi/RT
	 1.000e+000  exp(-F*psi/RT)
	 1.000e+004  specific area, m**2/g
	 7.508e-001  m**2 for  7.508e-005 g

	Water in diffuse layer: 7.508e-010 kg,  2.6% of total DDL-water.

	Total moles in diffuse layer (excluding water), Donnan calculation 

	Element       	     Moles
	Ca            	 1.9173e-016
	Cl            	 1.8815e-013
	H             	 1.7886e-016
	Na            	 1.8768e-013
	O             	 4.4393e-017

Sua           
	 7.508e-008  moles
	                                   Mole                     Log
	Species               Moles    Fraction    Molality    Molality

	Sua              7.508e-008       1.000  7.508e-008      -7.124

Hfo           
	-9.237e-016  Surface + diffuse layer charge, eq
	 1.150e-006  Surface charge, eq
	 4.207e-003  sigma, C/m**2
	 7.990e-002  psi, V
	-3.110e+000  -F*psi/RT
	 4.460e-002  exp(-F*psi/RT)
	 6.000e+002  specific area, m**2/g
	 2.638e+001  m**2 for  4.397e-002 g

	Water in diffuse layer: 2.638e-008 kg, 92.1% of total DDL-water.

	Total moles in diffuse layer (excluding water), Donnan calculation 

	Element       	     Moles
	Ca            	 2.6009e-025
	Cl            	 1.1499e-006
	H             	 2.6719e-010
	Na            	 3.8165e-017
	O             	 2.6719e-010

Hfo_s         
	 1.249e-005  moles
	                                   Mole                     Log
	Species               Moles    Fraction    Molality    Molality

	Hfo_sOH          9.588e-006       0.768  9.588e-006      -5.018
	Hfo_sOH2+        1.466e-006       0.117  1.466e-006      -5.834
	Hfo_sO-          1.437e-006       0.115  1.437e-006      -5.843
	Hfo_sOHCa+2      4.582e-010       0.000  4.582e-010      -9.339

Hfo_w         
	 4.872e-004  moles
	                                   Mole                     Log
	Species               Moles    Fraction    Molality    Molality

	Hfo_wOH          3.740e-004       0.768  3.740e-004      -3.427
	Hfo_wOH2+        5.716e-005       0.117  5.716e-005      -4.243
	Hfo_wO-          5.604e-005       0.115  5.604e-005      -4.251
	Hfo_wOCa+        3.450e-011       0.000  3.450e-011     -10.462

Sorbedhfo     
	-2.771e-022  Surface + diffuse layer charge, eq
	 3.451e-013  Surface charge, eq
	 4.207e-003  sigma, C/m**2
	 7.990e-002  psi, V
	-3.110e+000  -F*psi/RT
	 4.460e-002  exp(-F*psi/RT)
	 6.000e+002  specific area, m**2/g
	 7.916e-006  m**2 for  1.319e-008 g

	Water in diffuse layer: 7.916e-015 kg,  0.0% of total DDL-water.

	Total moles in diffuse layer (excluding water), Donnan calculation 

	Element       	     Moles
	Ca            	 7.8043e-032
	Cl            	 3.4503e-013
	H             	 8.0173e-017
	Na            	 1.1452e-023
	O             	 8.0173e-017

Sorbedhfo_s   
	 3.748e-012  moles
	                                   Mole                     Log
	Species               Moles    Fraction    Molality    Molality

	Sorbedhfo_sOH    2.877e-012       0.768  2.877e-012     -11.541
	Sorbedhfo_sOH2+  4.398e-013       0.117  4.398e-013     -12.357
	Sorbedhfo_sO-    4.312e-013       0.115  4.312e-013     -12.365
	Sorbedhfo_sOHCa+2  1.375e-016       0.000  1.375e-016     -15.862

Sorbedhfo_w   
	 1.462e-010  moles
	                                   Mole                     Log
	Species               Moles    Fraction    Molality    Molality

	Sorbedhfo_wOH    1.122e-010       0.768  1.122e-010      -9.950
	Sorbedhfo_wOH2+  1.715e-011       0.117  1.715e-011     -10.766
	Sorbedhfo_wO-    1.682e-011       0.115  1.682e-011     -10.774
	Sorbedhfo_wOCa+  1.035e-017       0.000  1.035e-017     -16.985

Sub           
	 8.687e-022  Surface + diffuse layer charge, eq
	 0.000e+000  Surface charge, eq
	 0.000e+000  sigma, C/m**2
	-1.529e-015  psi, V
	 5.953e-014  -F*psi/RT
	 1.000e+000  exp(-F*psi/RT)
	 1.000e+004  specific area, m**2/g
	 1.503e+000  m**2 for  1.503e-004 g

	Water in diffuse layer: 1.503e-009 kg,  5.2% of total DDL-water.

	Total moles in diffuse layer (excluding water), Donnan calculation 

	Element       	     Moles
	Ca            	 3.8382e-016
	Cl            	 3.7667e-013
	H             	 3.5807e-016
	Na            	 3.7572e-013
	O             	 8.8871e-017

Sub           
	 1.503e-007  moles
	                                   Mole                     Log
	Species               Moles    Fraction    Molality    Molality

	Sub              1.503e-007       1.000  1.503e-007      -6.823

----------------------------------User print-----------------------------------

Adapting surface in            6 

------------------------------Surface composition------------------------------

Sorbedhfo     
	-3.423e-022  Surface + diffuse layer charge, eq
	 2.856e-016  Surface charge, eq
	 6.960e-003  sigma, C/m**2
	 1.043e-001  psi, V
	-4.061e+000  -F*psi/RT
	 1.723e-002  exp(-F*psi/RT)
	 6.000e+002  specific area, m**2/g
	 3.960e-009  m**2 for  6.600e-012 g

	Water in diffuse layer: 3.960e-018 kg,  0.0% of total DDL-water.

	Total moles in diffuse layer (excluding water), Donnan calculation 

	Element       	     Moles
	Ca            	 1.3425e-035
	Cl            	 2.8558e-016
	H             	 2.5381e-020
	Na            	 3.4469e-027
	O             	 2.5381e-020

Sorbedhfo_s   
	 1.879e-015  moles
	                                   Mole                     Log
	Species               Moles    Fraction    Molality    Molality

	Sorbedhfo_sOH    1.442e-015       0.768  1.442e-015     -14.841
	Sorbedhfo_sOH2+  2.219e-016       0.118  2.219e-016     -15.654
	Sorbedhfo_sO-    2.147e-016       0.114  2.147e-016     -15.668
	Sorbedhfo_sOHCa+2  1.015e-020       0.000  1.015e-020     -19.993

Sorbedhfo_w   
	 7.312e-014  moles
	                                   Mole                     Log
	Species               Moles    Fraction    Molality    Molality

	Sorbedhfo_wOH    5.613e-014       0.768  5.613e-014     -13.251
	Sorbedhfo_wOH2+  8.636e-015       0.118  8.636e-015     -14.064
	Sorbedhfo_wO-    8.357e-015       0.114  8.357e-015     -14.078
	Sorbedhfo_wOCa+  7.579e-022       0.000  7.579e-022     -21.120

Sua           
	 5.582e-020  Surface + diffuse layer charge, eq
	 0.000e+000  Surface charge, eq
	 0.000e+000  sigma, C/m**2
	-1.983e-013  psi, V
	 7.717e-012  -F*psi/RT
	 1.000e+000  exp(-F*psi/RT)
	 1.000e+004  specific area, m**2/g
	 7.507e-001  m**2 for  7.507e-005 g

	Water in diffuse layer: 7.507e-010 kg, 33.2% of total DDL-water.

	Total moles in diffuse layer (excluding water), Donnan calculation 

	Element       	     Moles
	Ca            	 1.9070e-016
	Cl            	 1.8807e-013
	H             	 3.6801e-016
	Na            	 1.8736e-013
	O             	 1.7404e-017

Sua           
	 7.507e-008  moles
	                                   Mole                     Log
	Species               Moles    Fraction    Molality    Molality

	Sua              7.507e-008       1.000  7.507e-008      -7.125

Sub           
	 1.115e-019  Surface + diffuse layer charge, eq
	 0.000e+000  Surface charge, eq
	 0.000e+000  sigma, C/m**2
	-1.983e-013  psi, V
	 7.717e-012  -F*psi/RT
	 1.000e+000  exp(-F*psi/RT)
	 1.000e+004  specific area, m**2/g
	 1.500e+000  m**2 for  1.500e-004 g

	Water in diffuse layer: 1.500e-009 kg, 66.3% of total DDL-water.

	Total moles in diffuse layer (excluding water), Donnan calculation 

	Element       	     Moles
	Ca            	 3.8100e-016
	Cl            	 3.7575e-013
	H             	 7.3527e-016
	Na            	 3.7432e-013
	O             	 3.4771e-017

Sub           
	 1.500e-007  moles
	                                   Mole                     Log
	Species               Moles    Fraction    Molality    Molality

	Sub              1.500e-007       1.000  1.500e-007      -6.824

Hfo           
	-1.141e-015  Surface + diffuse layer charge, eq
	 9.518e-010  Surface charge, eq
	 6.960e-003  sigma, C/m**2
	 1.043e-001  psi, V
	-4.061e+000  -F*psi/RT
	 1.723e-002  exp(-F*psi/RT)
	 6.000e+002  specific area, m**2/g
	 1.320e-002  m**2 for  2.199e-005 g

	Water in diffuse layer: 1.320e-011 kg,  0.6% of total DDL-water.

	Total moles in diffuse layer (excluding water), Donnan calculation 

	Element       	     Moles
	Ca            	 4.4743e-029
	Cl            	 9.5176e-010
	H             	 8.4587e-014
	Na            	 1.1487e-020
	O             	 8.4587e-014

Hfo_s         
	 6.248e-009  moles
	                                   Mole                     Log
	Species               Moles    Fraction    Molality    Molality

	Hfo_sOH          4.796e-009       0.768  4.796e-009      -8.319
	Hfo_sOH2+        7.379e-010       0.118  7.379e-010      -9.132
	Hfo_sO-          7.142e-010       0.114  7.142e-010      -9.146
	Hfo_sOHCa+2      3.376e-014       0.000  3.376e-014     -13.472

Hfo_w         
	 2.437e-007  moles
	                                   Mole                     Log
	Species               Moles    Fraction    Molality    Molality

	Hfo_wOH          1.871e-007       0.768  1.871e-007      -6.728
	Hfo_wOH2+        2.878e-008       0.118  2.878e-008      -7.541
	Hfo_wO-          2.785e-008       0.114  2.785e-008      -7.555
	Hfo_wOCa+        2.526e-015       0.000  2.526e-015     -14.598

----------------------------------User print-----------------------------------

Adapting surface in            3 

------------------------------Surface composition------------------------------

Sua           
	 4.152e-027  Surface + diffuse layer charge, eq
	 0.000e+000  Surface charge, eq
	 0.000e+000  sigma, C/m**2
	-2.337e-011  psi, V
	 9.097e-010  -F*psi/RT
	 1.000e+000  exp(-F*psi/RT)
	 1.000e+004  specific area, m**2/g
	 1.500e-008  m**2 for  1.500e-012 g

	Water in diffuse layer: 1.500e-017 kg,  0.1% of total DDL-water.

	Total moles in diffuse layer (excluding water), Donnan calculation 

	Element       	     Moles
	Ca            	 2.2706e-027
	Cl            	 2.2497e-024
	H             	 3.0301e-024
	Na            	 2.2488e-024
	O             	 1.5148e-024

Sua           
	 1.500e-015  moles
	                                   Mole                     Log
	Species               Moles    Fraction    Molality    Molality

	Sua              1.500e-015       1.000  1.500e-015     -14.824

Hfo           
	 8.297e-018  Surface + diffuse layer charge, eq
	 1.595e-014  Surface charge, eq
	 9.728e-005  sigma, C/m**2
	 6.566e-002  psi, V
	-2.556e+000  -F*psi/RT
	 7.765e-002  exp(-F*psi/RT)
	 6.000e+002  specific area, m**2/g
	 1.582e-005  m**2 for  2.637e-008 g

	Water in diffuse layer: 1.582e-014 kg, 99.9% of total DDL-water.

	Total moles in diffuse layer (excluding water), Donnan calculation 

	Element       	     Moles
	Ca            	 1.1344e-036
	Cl            	 9.5639e-015
	H             	 6.3815e-015
	Na            	 7.4561e-028
	O             	 6.3815e-015

Hfo_s         
	 7.493e-012  moles
	                                   Mole                     Log
	Species               Moles    Fraction    Molality    Molality

	Hfo_sOH          5.751e-012       0.768  5.751e-012     -11.240
	Hfo_sOH2+        8.707e-013       0.116  8.707e-013     -12.060
	Hfo_sO-          8.703e-013       0.116  8.703e-013     -12.060
	Hfo_sOHCa+2      4.892e-019       0.000  4.892e-019     -18.311

Hfo_w         
	 2.922e-010  moles
	                                   Mole                     Log
	Species               Moles    Fraction    Molality    Molality

	Hfo_wOH          2.243e-010       0.768  2.243e-010      -9.649
	Hfo_wOH2+        3.396e-011       0.116  3.396e-011     -10.469
	Hfo_wO-          3.394e-011       0.116  3.394e-011     -10.469
	Hfo_wOCa+        3.719e-020       0.000  3.719e-020     -19.430

----------------------------------User print-----------------------------------

Adapting surface in            7 

------------------------------Surface composition------------------------------

Sua           
	 4.041e-039  Surface + diffuse layer charge, eq
	 0.000e+000  Surface charge, eq
	 0.000e+000  sigma, C/m**2
	-2.498e-023  psi, V
	 9.722e-022  -F*psi/RT
	 1.000e+000  exp(-F*psi/RT)
	 1.000e+004  specific area, m**2/g
	 1.500e-008  m**2 for  1.500e-012 g

	Water in diffuse layer: 1.500e-017 kg, 65.5% of total DDL-water.

	Total moles in diffuse layer (excluding water), Donnan calculation 

	Element       	     Moles
	Ca            	 2.2634e-027
	Cl            	 2.2526e-024
	H             	 3.0298e-024
	Na            	 2.2450e-024
	O             	 1.5133e-024

Sua           
	 1.500e-015  moles
	                                   Mole                     Log
	Species               Moles    Fraction    Molality    Molality

	Sua              1.500e-015       1.000  1.500e-015     -14.824

Hfo           
	 3.928e-022  Surface + diffuse layer charge, eq
	 7.983e-018  Surface charge, eq
	 9.732e-005  sigma, C/m**2
	 6.569e-002  psi, V
	-2.557e+000  -F*psi/RT
	 7.754e-002  exp(-F*psi/RT)
	 6.000e+002  specific area, m**2/g
	 7.916e-009  m**2 for  1.319e-011 g

	Water in diffuse layer: 7.916e-018 kg, 34.5% of total DDL-water.

	Total moles in diffuse layer (excluding water), Donnan calculation 

	Element       	     Moles
	Ca            	 5.6538e-040
	Cl            	 4.7924e-018
	H             	 3.1904e-018
	Na            	 3.7222e-031
	O             	 3.1904e-018

Hfo_s         
	 3.748e-015  moles
	                                   Mole                     Log
	Species               Moles    Fraction    Molality    Molality

	Hfo_sOH          2.883e-015       0.769  2.883e-015     -14.540
	Hfo_sOH2+        4.364e-016       0.116  4.364e-016     -15.360
	Hfo_sO-          4.362e-016       0.116  4.362e-016     -15.360
	Hfo_sOHCa+2      2.440e-022       0.000  2.440e-022     -21.613

Hfo_w         
	 1.462e-013  moles
	                                   Mole                     Log
	Species               Moles    Fraction    Molality    Molality

	Hfo_wOH          1.122e-013       0.768  1.122e-013     -12.950
	Hfo_wOH2+        1.699e-014       0.116  1.699e-014     -13.770
	Hfo_wO-          1.698e-014       0.116  1.698e-014     -13.770
	Hfo_wOCa+        1.851e-023       0.000  1.851e-023     -22.732

----------------------------------User print-----------------------------------

Adapting surface in            1 

------------------------------Surface composition------------------------------

Hfo           
	-2.464e-012  Surface + diffuse layer charge, eq
	 3.276e-006  Surface charge, eq
	 5.989e-003  sigma, C/m**2
	 6.743e-002  psi, V
	-2.625e+000  -F*psi/RT
	 7.247e-002  exp(-F*psi/RT)
	 6.000e+002  specific area, m**2/g
	 5.277e+001  m**2 for  8.796e-002 g

	Water in diffuse layer: 5.277e-008 kg,  0.1% of total DDL-water.

	Total moles in diffuse layer (excluding water), Donnan calculation 

	Element       	     Moles
	Ca            	 1.0229e-023
	Cl            	 3.2752e-006
	H             	 3.5679e-010
	Na            	 6.5373e-016
	O             	 3.5679e-010

Hfo_s         
	 2.499e-005  moles
	                                   Mole                     Log
	Species               Moles    Fraction    Molality    Molality

	Hfo_sOH          1.917e-005       0.767  1.917e-005      -4.717
	Hfo_sOH2+        2.943e-006       0.118  2.943e-006      -5.531
	Hfo_sO-          2.862e-006       0.115  2.862e-006      -5.543
	Hfo_sOHCa+2      8.243e-009       0.000  8.243e-009      -8.084

Hfo_w         
	 9.745e-004  moles
	                                   Mole                     Log
	Species               Moles    Fraction    Molality    Molality

	Hfo_wOH          7.480e-004       0.768  7.480e-004      -3.126
	Hfo_wOH2+        1.148e-004       0.118  1.148e-004      -3.940
	Hfo_wO-          1.116e-004       0.115  1.116e-004      -3.952
	Hfo_wOCa+        6.183e-010       0.000  6.183e-010      -9.209

Sua           
	 3.434e-016  Surface + diffuse layer charge, eq
	 0.000e+000  Surface charge, eq
	 0.000e+000  sigma, C/m**2
	-9.811e-014  psi, V
	 3.819e-012  -F*psi/RT
	 1.000e+000  exp(-F*psi/RT)
	 1.000e+004  specific area, m**2/g
	 4.999e+003  m**2 for  4.999e-001 g

	Water in diffuse layer: 4.999e-006 kg, 11.1% of total DDL-water.

	Total moles in diffuse layer (excluding water), Donnan calculation 

	Element       	     Moles
	Ca            	 4.3748e-012
	Cl            	 4.3779e-009
	H             	 1.0461e-012
	Na            	 4.3690e-009
	O             	 4.8165e-013

Sua           
	 4.999e-004  moles
	                                   Mole                     Log
	Species               Moles    Fraction    Molality    Molality

	Sua              4.999e-004       1.000  4.999e-004      -3.301

Sub           
	 2.747e-015  Surface + diffuse layer charge, eq
	 0.000e+000  Surface charge, eq
	 0.000e+000  sigma, C/m**2
	-9.811e-014  psi, V
	 3.819e-012  -F*psi/RT
	 1.000e+000  exp(-F*psi/RT)
	 1.000e+004  specific area, m**2/g
	 3.999e+004  m**2 for  3.999e+000 g

	Water in diffuse layer: 3.999e-005 kg, 88.7% of total DDL-water.

	Total moles in diffuse layer (excluding water), Donnan calculation 

	Element       	     Moles
	Ca            	 3.5001e-011
	Cl            	 3.5026e-008
	H             	 8.3696e-012
	Na            	 3.4955e-008
	O             	 3.8536e-012

Sub           
	 3.999e-003  moles
	                                   Mole                     Log
	Species               Moles    Fraction    Molality    Molality

	Sub              3.999e-003       1.000  3.999e-003      -2.398

Sorbedhfo     
	-2.464e-012  Surface + diffuse layer charge, eq
	 3.275e-006  Surface charge, eq
	 5.989e-003  sigma, C/m**2
	 6.743e-002  psi, V
	-2.625e+000  -F*psi/RT
	 7.247e-002  exp(-F*psi/RT)
	 6.000e+002  specific area, m**2/g
	 5.277e+001  m**2 for  8.795e-002 g

	Water in diffuse layer: 5.277e-008 kg,  0.1% of total DDL-water.

	Total moles in diffuse layer (excluding water), Donnan calculation 

	Element       	     Moles
	Ca            	 1.0228e-023
	Cl            	 3.2749e-006
	H             	 3.5676e-010
	Na            	 6.5368e-016
	O             	 3.5676e-010

Sorbedhfo_s   
	 2.499e-005  moles
	                                   Mole                     Log
	Species               Moles    Fraction    Molality    Molality

	Sorbedhfo_sOH    1.917e-005       0.767  1.917e-005      -4.717
	Sorbedhfo_sOH2+  2.943e-006       0.118  2.943e-006      -5.531
	Sorbedhfo_sO-    2.862e-006       0.115  2.862e-006      -5.543
	Sorbedhfo_sOHCa+2  8.242e-009       0.000  8.242e-009      -8.084

Sorbedhfo_w   
	 9.744e-004  moles
	                                   Mole                     Log
	Species               Moles    Fraction    Molality    Molality

	Sorbedhfo_wOH    7.480e-004       0.768  7.480e-004      -3.126
	Sorbedhfo_wOH2+  1.148e-004       0.118  1.148e-004      -3.940
	Sorbedhfo_wO-    1.116e-004       0.115  1.116e-004      -3.952
	Sorbedhfo_wOCa+  6.183e-010       0.000  6.183e-010      -9.209

----------------------------------User print-----------------------------------

Adapting surface in            5 

------------------------------Surface composition------------------------------

Sorbedhfo     
	-1.441e-013  Surface + diffuse layer charge, eq
	 2.066e-009  Surface charge, eq
	 6.044e-003  sigma, C/m**2
	 6.784e-002  psi, V
	-2.640e+000  -F*psi/RT
	 7.133e-002  exp(-F*psi/RT)
	 6.000e+002  specific area, m**2/g
	 3.299e-002  m**2 for  5.499e-005 g

	Water in diffuse layer: 3.299e-011 kg,  0.0% of total DDL-water.

	Total moles in diffuse layer (excluding water), Donnan calculation 

	Element       	     Moles
	Ca            	 6.2252e-027
	Cl            	 2.0663e-009
	H             	 2.2130e-013
	Na            	 4.0493e-019
	O             	 2.2130e-013

Sorbedhfo_s   
	 1.562e-008  moles
	                                   Mole                     Log
	Species               Moles    Fraction    Molality    Molality

	Sorbedhfo_sOH    1.199e-008       0.767  1.199e-008      -7.921
	Sorbedhfo_sOH2+  1.840e-009       0.118  1.840e-009      -8.735
	Sorbedhfo_sO-    1.789e-009       0.115  1.789e-009      -8.747
	Sorbedhfo_sOHCa+2  4.943e-012       0.000  4.943e-012     -11.306

Sorbedhfo_w   
	 6.092e-007  moles
	                                   Mole                     Log
	Species               Moles    Fraction    Molality    Molality

	Sorbedhfo_wOH    4.677e-007       0.768  4.677e-007      -6.330
	Sorbedhfo_wOH2+  7.179e-008       0.118  7.179e-008      -7.144
	Sorbedhfo_wO-    6.979e-008       0.115  6.979e-008      -7.156
	Sorbedhfo_wOCa+  3.707e-013       0.000  3.707e-013     -12.431

Sua           
	 7.610e-017  Surface + diffuse layer charge, eq
	 0.000e+000  Surface charge, eq
	 0.000e+000  sigma, C/m**2
	-2.193e-014  psi, V
	 8.535e-013  -F*psi/RT
	 1.000e+000  exp(-F*psi/RT)
	 1.000e+004  specific area, m**2/g
	 4.998e+003  m**2 for  4.998e-001 g

	Water in diffuse layer: 4.998e-006 kg, 33.3% of total DDL-water.

	Total moles in diffuse layer (excluding water), Donnan calculation 

	Element       	     Moles
	Ca            	 4.3409e-012
	Cl            	 4.3772e-009
	H             	 1.0477e-012
	Na            	 4.3684e-009
	O             	 4.7359e-013

Sua           
	 4.998e-004  moles
	                                   Mole                     Log
	Species               Moles    Fraction    Molality    Molality

	Sua              4.998e-004       1.000  4.998e-004      -3.301

Sub           
	 1.523e-016  Surface + diffuse layer charge, eq
	 0.000e+000  Surface charge, eq
	 0.000e+000  sigma, C/m**2
	-2.193e-014  psi, V
	 8.535e-013  -F*psi/RT
	 1.000e+000  exp(-F*psi/RT)
	 1.000e+004  specific area, m**2/g
	 1.000e+004  m**2 for  1.000e+000 g

	Water in diffuse layer: 1.000e-005 kg, 66.7% of total DDL-water.

	Total moles in diffuse layer (excluding water), Donnan calculation 

	Element       	     Moles
	Ca            	 8.6867e-012
	Cl            	 8.7593e-009
	H             	 2.0967e-012
	Na            	 8.7418e-009
	O             	 9.4772e-013

Sub           
	 1.000e-003  moles
	                                   Mole                     Log
	Species               Moles    Fraction    Molality    Molality

	Sub              1.000e-003       1.000  1.000e-003      -3.000

Hfo           
	-2.017e-013  Surface + diffuse layer charge, eq
	 2.892e-009  Surface charge, eq
	 6.044e-003  sigma, C/m**2
	 6.784e-002  psi, V
	-2.640e+000  -F*psi/RT
	 7.133e-002  exp(-F*psi/RT)
	 6.000e+002  specific area, m**2/g
	 4.618e-002  m**2 for  7.697e-005 g

	Water in diffuse layer: 4.618e-011 kg,  0.0% of total DDL-water.

	Total moles in diffuse layer (excluding water), Donnan calculation 

	Element       	     Moles
	Ca            	 8.7138e-027
	Cl            	 2.8924e-009
	H             	 3.0976e-013
	Na            	 5.6680e-019
	O             	 3.0976e-013

Hfo_s         
	 2.187e-008  moles
	                                   Mole                     Log
	Species               Moles    Fraction    Molality    Molality

	Hfo_sOH          1.678e-008       0.767  1.678e-008      -7.775
	Hfo_sOH2+        2.576e-009       0.118  2.576e-009      -8.589
	Hfo_sO-          2.504e-009       0.115  2.504e-009      -8.601
	Hfo_sOHCa+2      6.919e-012       0.000  6.919e-012     -11.160

Hfo_w         
	 8.528e-007  moles
	                                   Mole                     Log
	Species               Moles    Fraction    Molality    Molality

	Hfo_wOH          6.546e-007       0.768  6.546e-007      -6.184
	Hfo_wOH2+        1.005e-007       0.118  1.005e-007      -6.998
	Hfo_wO-          9.769e-008       0.115  9.769e-008      -7.010
	Hfo_wOCa+        5.189e-013       0.000  5.189e-013     -12.285

----------------------------------User print-----------------------------------

Adapting surface in            2 

------------------------------Surface composition------------------------------

Hfo           
	-4.259e-013  Surface + diffuse layer charge, eq
	 2.488e-006  Surface charge, eq
	 9.104e-003  sigma, C/m**2
	 1.005e-001  psi, V
	-3.913e+000  -F*psi/RT
	 1.998e-002  exp(-F*psi/RT)
	 6.000e+002  specific area, m**2/g
	 2.637e+001  m**2 for  4.394e-002 g

	Water in diffuse layer: 2.637e-008 kg, 60.9% of total DDL-water.

	Total moles in diffuse layer (excluding water), Donnan calculation 

	Element       	     Moles
	Ca            	 4.0586e-025
	Cl            	 2.4874e-006
	H             	 1.2902e-010
	Na            	 6.9857e-017
	O             	 1.2902e-010

Hfo_s         
	 1.248e-005  moles
	                                   Mole                     Log
	Species               Moles    Fraction    Molality    Molality

	Hfo_sOH          9.582e-006       0.768  9.582e-006      -5.019
	Hfo_sOH2+        1.482e-006       0.119  1.482e-006      -5.829
	Hfo_sO-          1.420e-006       0.114  1.420e-006      -5.848
	Hfo_sOHCa+2      1.818e-010       0.000  1.818e-010      -9.740

Hfo_w         
	 4.869e-004  moles
	                                   Mole                     Log
	Species               Moles    Fraction    Molality    Molality

	Hfo_wOH          3.737e-004       0.768  3.737e-004      -3.427
	Hfo_wOH2+        5.779e-005       0.119  5.779e-005      -4.238
	Hfo_wO-          5.536e-005       0.114  5.536e-005      -4.257
	Hfo_wOCa+        1.353e-011       0.000  1.353e-011     -10.869

Sua           
	 2.235e-019  Surface + diffuse layer charge, eq
	 0.000e+000  Surface charge, eq
	 0.000e+000  sigma, C/m**2
	-2.814e-013  psi, V
	 1.095e-011  -F*psi/RT
	 1.000e+000  exp(-F*psi/RT)
	 1.000e+004  specific area, m**2/g
	 1.500e+000  m**2 for  1.500e-004 g

	Water in diffuse layer: 1.500e-009 kg,  3.5% of total DDL-water.

	Total moles in diffuse layer (excluding water), Donnan calculation 

	Element       	     Moles
	Ca            	 7.6081e-016
	Cl            	 7.4986e-013
	H             	 6.5060e-016
	Na            	 7.4777e-013
	O             	 4.0273e-017

Sua           
	 1.500e-007  moles
	                                   Mole                     Log
	Species               Moles    Fraction    Molality    Molality

	Sua              1.500e-007       1.000  1.500e-007      -6.824

Sorbedhfo     
	-2.131e-013  Surface + diffuse layer charge, eq
	 1.245e-006  Surface charge, eq
	 9.104e-003  sigma, C/m**2
	 1.005e-001  psi, V
	-3.913e+000  -F*psi/RT
	 1.998e-002  exp(-F*psi/RT)
	 6.000e+002  specific area, m**2/g
	 1.319e+001  m**2 for  2.198e-002 g

	Water in diffuse layer: 1.319e-008 kg, 30.5% of total DDL-water.

	Total moles in diffuse layer (excluding water), Donnan calculation 

	Element       	     Moles
	Ca            	 2.0305e-025
	Cl            	 1.2445e-006
	H             	 6.4551e-011
	Na            	 3.4949e-017
	O             	 6.4551e-011

Sorbedhfo_s   
	 6.246e-006  moles
	                                   Mole                     Log
	Species               Moles    Fraction    Molality    Molality

	Sorbedhfo_sOH    4.794e-006       0.768  4.794e-006      -5.319
	Sorbedhfo_sOH2+  7.413e-007       0.119  7.413e-007      -6.130
	Sorbedhfo_sO-    7.102e-007       0.114  7.102e-007      -6.149
	Sorbedhfo_sOHCa+2  9.097e-011       0.000  9.097e-011     -10.041

Sorbedhfo_w   
	 2.436e-004  moles
	                                   Mole                     Log
	Species               Moles    Fraction    Molality    Molality

	Sorbedhfo_wOH    1.870e-004       0.768  1.870e-004      -3.728
	Sorbedhfo_wOH2+  2.891e-005       0.119  2.891e-005      -4.539
	Sorbedhfo_wO-    2.770e-005       0.114  2.770e-005      -4.558
	Sorbedhfo_wOCa+  6.771e-012       0.000  6.771e-012     -11.169

Sub           
	 3.359e-019  Surface + diffuse layer charge, eq
	 0.000e+000  Surface charge, eq
	 0.000e+000  sigma, C/m**2
	-2.814e-013  psi, V
	 1.095e-011  -F*psi/RT
	 1.000e+000  exp(-F*psi/RT)
	 1.000e+004  specific area, m**2/g
	 2.254e+000  m**2 for  2.254e-004 g

	Water in diffuse layer: 2.254e-009 kg,  5.2% of total DDL-water.

	Total moles in diffuse layer (excluding water), Donnan calculation 

	Element       	     Moles
	Ca            	 1.1431e-015
	Cl            	 1.1267e-012
	H             	 9.7752e-016
	Na            	 1.1235e-012
	O             	 6.0510e-017

Sub           
	 2.254e-007  moles
	                                   Mole                     Log
	Species               Moles    Fraction    Molality    Molality

	Sub              2.254e-007       1.000  2.254e-007      -6.647

----------------------------------User print-----------------------------------

Adapting surface in            6 

------------------------------Surface composition------------------------------

Sorbedhfo     
	 4.788e-018  Surface + diffuse layer charge, eq
	-6.097e-012  Surface charge, eq
	-8.916e-005  sigma, C/m**2
	-1.742e-003  psi, V
	 6.780e-002  -F*psi/RT
	 1.070e+000  exp(-F*psi/RT)
	 6.000e+002  specific area, m**2/g
	 6.598e-003  m**2 for  1.100e-005 g

	Water in diffuse layer: 6.598e-012 kg,  0.2% of total DDL-water.

	Total moles in diffuse layer (excluding water), Donnan calculation 

	Element       	     Moles
	Ca            	 1.8262e-012
	Cl            	 4.4506e-018
	H             	 3.6098e-017
	Na            	 2.4447e-012
	O             	 7.9756e-020

Sorbedhfo_s   
	 3.124e-009  moles
	                                   Mole                     Log
	Species               Moles    Fraction    Molality    Molality

	Sorbedhfo_sOH    2.303e-009       0.737  2.303e-009      -8.638
	Sorbedhfo_sO-    3.518e-010       0.113  3.518e-010      -9.454
	Sorbedhfo_sOH2+  3.454e-010       0.111  3.454e-010      -9.462
	Sorbedhfo_sOHCa+2  1.241e-010       0.040  1.241e-010      -9.906

Sorbedhfo_w   
	 1.218e-007  moles
	                                   Mole                     Log
	Species               Moles    Fraction    Molality    Molality

	Sorbedhfo_wOH    9.352e-008       0.768  9.352e-008      -7.029
	Sorbedhfo_wO-    1.428e-008       0.117  1.428e-008      -7.845
	Sorbedhfo_wOH2+  1.403e-008       0.115  1.403e-008      -7.853
	Sorbedhfo_wOCa+  9.918e-012       0.000  9.918e-012     -11.004

Sua           
	 3.153e-020  Surface + diffuse layer charge, eq
	 0.000e+000  Surface charge, eq
	 0.000e+000  sigma, C/m**2
	-3.963e-014  psi, V
	 1.543e-012  -F*psi/RT
	 1.000e+000  exp(-F*psi/RT)
	 1.000e+004  specific area, m**2/g
	 1.500e+000  m**2 for  1.500e-004 g

	Water in diffuse layer: 1.500e-009 kg, 39.7% of total DDL-water.

	Total moles in diffuse layer (excluding water), Donnan calculation 

	Element       	     Moles
	Ca            	 7.5639e-016
	Cl            	 7.4952e-013
	H             	 2.1577e-015
	Na            	 7.5014e-013
	O             	 2.1453e-015

Sua           
	 1.500e-007  moles
	                                   Mole                     Log
	Species               Moles    Fraction    Molality    Molality

	Sua              1.500e-007       1.000  1.500e-007      -6.824

Sub           
	 4.731e-020  Surface + diffuse layer charge, eq
	 0.000e+000  Surface charge, eq
	 0.000e+000  sigma, C/m**2
	-3.963e-014  psi, V
	 1.543e-012  -F*psi/RT
	 1.000e+000  exp(-F*psi/RT)
	 1.000e+004  specific area, m**2/g
	 2.251e+000  m**2 for  2.251e-004 g

	Water in diffuse layer: 2.251e-009 kg, 59.6% of total DDL-water.

	Total moles in diffuse layer (excluding water), Donnan calculation 

	Element       	     Moles
	Ca            	 1.1350e-015
	Cl            	 1.1247e-012
	H             	 3.2376e-015
	Na            	 1.1256e-012
	O             	 3.2190e-015

Sub           
	 2.251e-007  moles
	                                   Mole                     Log
	Species               Moles    Fraction    Molality    Molality

	Sub              2.251e-007       1.000  2.251e-007      -6.648

Hfo           
	 1.436e-017  Surface + diffuse layer charge, eq
	-1.828e-011  Surface charge, eq
	-8.916e-005  sigma, C/m**2
	-1.742e-003  psi, V
	 6.780e-002  -F*psi/RT
	 1.070e+000  exp(-F*psi/RT)
	 6.000e+002  specific area, m**2/g
	 1.978e-002  m**2 for  3.297e-005 g

	Water in diffuse layer: 1.978e-011 kg,  0.5% of total DDL-water.

	Total moles in diffuse layer (excluding water), Donnan calculation 

	Element       	     Moles
	Ca            	 5.4755e-012
	Cl            	 1.3344e-017
	H             	 1.0823e-016
	Na            	 7.3300e-012
	O             	 2.3913e-019

Hfo_s         
	 9.367e-009  moles
	                                   Mole                     Log
	Species               Moles    Fraction    Molality    Molality

	Hfo_sOH          6.905e-009       0.737  6.905e-009      -8.161
	Hfo_sO-          1.055e-009       0.113  1.055e-009      -8.977
	Hfo_sOH2+        1.036e-009       0.111  1.036e-009      -8.985
	Hfo_sOHCa+2      3.721e-010       0.040  3.721e-010      -9.429

Hfo_w         
	 3.653e-007  moles
	                                   Mole                     Log
	Species               Moles    Fraction    Molality    Molality

	Hfo_wOH          2.804e-007       0.768  2.804e-007      -6.552
	Hfo_wO-          4.283e-008       0.117  4.283e-008      -7.368
	Hfo_wOH2+        4.206e-008       0.115  4.206e-008      -7.376
	Hfo_wOCa+        2.974e-011       0.000  2.974e-011     -10.527

----------------------------------User print-----------------------------------

Adapting surface in            3 

------------------------------Surface composition------------------------------

Sua           
	-6.174e-028  Surface + diffuse layer charge, eq
	 0.000e+000  Surface charge, eq
	 0.000e+000  sigma, C/m**2
	 3.096e-013  psi, V
	-1.205e-011  -F*psi/RT
	 1.000e+000  exp(-F*psi/RT)
	 1.000e+004  specific area, m**2/g
	 7.507e-009  m**2 for  7.507e-013 g

	Water in diffuse layer: 7.507e-018 kg,  0.0% of total DDL-water.

	Total moles in diffuse layer (excluding water), Donnan calculation 

	Element       	     Moles
	Ca            	 9.6065e-025
	Cl            	 9.4261e-022
	H             	 1.5574e-024
	Na            	 9.4095e-022
	O             	 9.0956e-025

Sua           
	 7.507e-016  moles
	                                   Mole                     Log
	Species               Moles    Fraction    Molality    Molality

	Sua              7.507e-016       1.000  7.507e-016     -15.125

Hfo           
	-4.803e-013  Surface + diffuse layer charge, eq
	 2.699e-007  Surface charge, eq
	 1.974e-003  sigma, C/m**2
	 6.137e-002  psi, V
	-2.389e+000  -F*psi/RT
	 9.174e-002  exp(-F*psi/RT)
	 6.000e+002  specific area, m**2/g
	 1.319e+001  m**2 for  2.198e-002 g

	Water in diffuse layer: 1.319e-008 kg, 100.0% of total DDL-water.

	Total moles in diffuse layer (excluding water), Donnan calculation 

	Element       	     Moles
	Ca            	 8.4329e-026
	Cl            	 2.6960e-007
	H             	 2.5822e-010
	Na            	 1.0282e-017
	O             	 2.5822e-010

Hfo_s         
	 6.244e-006  moles
	                                   Mole                     Log
	Species               Moles    Fraction    Molality    Molality

	Hfo_sOH          4.793e-006       0.768  4.793e-006      -5.319
	Hfo_sOH2+        7.288e-007       0.117  7.288e-007      -6.137
	Hfo_sO-          7.221e-007       0.116  7.221e-007      -6.141
	Hfo_sOHCa+2      4.895e-010       0.000  4.895e-010      -9.310

Hfo_w         
	 2.435e-004  moles
	                                   Mole                     Log
	Species               Moles    Fraction    Molality    Molality

	Hfo_wOH          1.869e-004       0.768  1.869e-004      -3.728
	Hfo_wOH2+        2.843e-005       0.117  2.843e-005      -4.546
	Hfo_wO-          2.816e-005       0.116  2.816e-005      -4.550
	Hfo_wOCa+        3.705e-011       0.000  3.705e-011     -10.431

Sub           
	-1.233e-027  Surface + diffuse layer charge, eq
	 0.000e+000  Surface charge, eq
	 0.000e+000  sigma, C/m**2
	 3.096e-013  psi, V
	-1.205e-011  -F*psi/RT
	 1.000e+000  exp(-F*psi/RT)
	 1.000e+004  specific area, m**2/g
	 1.500e-008  m**2 for  1.500e-012 g

	Water in diffuse layer: 1.500e-017 kg,  0.0% of total DDL-water.

	Total moles in diffuse layer (excluding water), Donnan calculation 

	Element       	     Moles
	Ca            	 1.9191e-024
	Cl            	 1.8830e-021
	H             	 3.1112e-024
	Na            	 1.8797e-021
	O             	 1.8170e-024

Sub           
	 1.500e-015  moles
	                                   Mole                     Log
	Species               Moles    Fraction    Molality    Molality

	Sub              1.500e-015       1.000  1.500e-015     -14.824

Sorbedhfo     
	-2.881e-019  Surface + diffuse layer charge, eq
	 1.619e-013  Surface charge, eq
	 1.974e-003  sigma, C/m**2
	 6.137e-002  psi, V
	-2.389e+000  -F*psi/RT
	 9.174e-002  exp(-F*psi/RT)
	 6.000e+002  specific area, m**2/g
	 7.912e-006  m**2 for  1.319e-008 g

	Water in diffuse layer: 7.912e-015 kg,  0.0% of total DDL-water.

	Total moles in diffuse layer (excluding water), Donnan calculation 

	Element       	     Moles
	Ca            	 5.0592e-032
	Cl            	 1.6174e-013
	H             	 1.5492e-016
	Na            	 6.1688e-024
	O             	 1.5492e-016

Sorbedhfo_s   
	 3.746e-012  moles
	                                   Mole                     Log
	Species               Moles    Fraction    Molality    Molality

	Sorbedhfo_sOH    2.876e-012       0.768  2.876e-012     -11.541
	Sorbedhfo_sOH2+  4.372e-013       0.117  4.372e-013     -12.359
	Sorbedhfo_sO-    4.332e-013       0.116  4.332e-013     -12.363
	Sorbedhfo_sOHCa+2  2.937e-016       0.000  2.937e-016     -15.532

Sorbedhfo_w   
	 1.461e-010  moles
	                                   Mole                     Log
	Species               Moles    Fraction    Molality    Molality

[...]
	Hfo_sO-          2.689e-009       0.115  2.689e-009      -8.570
	Hfo_sOHCa+2      1.811e-011       0.001  1.811e-011     -10.742

Hfo_w         
	 9.137e-007  moles
	                                   Mole                     Log
	Species               Moles    Fraction    Molality    Molality

	Hfo_wOH          7.013e-007       0.768  7.013e-007      -6.154
	Hfo_wOH2+        1.074e-007       0.118  1.074e-007      -6.969
	Hfo_wO-          1.050e-007       0.115  1.050e-007      -6.979
	Hfo_wOCa+        1.363e-012       0.000  1.363e-012     -11.866

----------------------------------User print-----------------------------------

Adapting surface in            2 

------------------------------Surface composition------------------------------

Hfo           
	-7.680e-014  Surface + diffuse layer charge, eq
	 3.678e-007  Surface charge, eq
	 1.346e-003  sigma, C/m**2
	 2.176e-002  psi, V
	-8.469e-001  -F*psi/RT
	 4.287e-001  exp(-F*psi/RT)
	 6.000e+002  specific area, m**2/g
	 2.637e+001  m**2 for  4.396e-002 g

	Water in diffuse layer: 2.637e-008 kg, 45.5% of total DDL-water.

	Total moles in diffuse layer (excluding water), Donnan calculation 

	Element       	     Moles
	Ca            	 3.9668e-023
	Cl            	 3.6750e-007
	H             	 3.0367e-010
	Na            	 9.0526e-016
	O             	 3.0367e-010

Hfo_s         
	 1.249e-005  moles
	                                   Mole                     Log
	Species               Moles    Fraction    Molality    Molality

	Hfo_sOH          9.521e-006       0.762  9.521e-006      -5.021
	Hfo_sOH2+        1.443e-006       0.116  1.443e-006      -5.841
	Hfo_sO-          1.439e-006       0.115  1.439e-006      -5.842
	Hfo_sOHCa+2      8.455e-008       0.007  8.455e-008      -7.073

Hfo_w         
	 4.870e-004  moles
	                                   Mole                     Log
	Species               Moles    Fraction    Molality    Molality

	Hfo_wOH          3.738e-004       0.768  3.738e-004      -3.427
	Hfo_wOH2+        5.668e-005       0.116  5.668e-005      -4.247
	Hfo_wO-          5.649e-005       0.116  5.649e-005      -4.248
	Hfo_wOCa+        6.462e-009       0.000  6.462e-009      -8.190

Sua           
	 5.455e-020  Surface + diffuse layer charge, eq
	 0.000e+000  Surface charge, eq
	 0.000e+000  sigma, C/m**2
	-5.844e-014  psi, V
	 2.275e-012  -F*psi/RT
	 1.000e+000  exp(-F*psi/RT)
	 1.000e+004  specific area, m**2/g
	 1.500e+000  m**2 for  1.500e-004 g

	Water in diffuse layer: 1.500e-009 kg,  2.6% of total DDL-water.

	Total moles in diffuse layer (excluding water), Donnan calculation 

	Element       	     Moles
	Ca            	 7.7429e-016
	Cl            	 1.0340e-012
	H             	 8.8531e-016
	Na            	 1.0333e-012
	O             	 8.5607e-016

Sua           
	 1.500e-007  moles
	                                   Mole                     Log
	Species               Moles    Fraction    Molality    Molality

	Sua              1.500e-007       1.000  1.500e-007      -6.824

Sorbedhfo     
	-7.680e-014  Surface + diffuse layer charge, eq
	 3.678e-007  Surface charge, eq
	 1.346e-003  sigma, C/m**2
	 2.176e-002  psi, V
	-8.469e-001  -F*psi/RT
	 4.287e-001  exp(-F*psi/RT)
	 6.000e+002  specific area, m**2/g
	 2.637e+001  m**2 for  4.396e-002 g

	Water in diffuse layer: 2.637e-008 kg, 45.5% of total DDL-water.

	Total moles in diffuse layer (excluding water), Donnan calculation 

	Element       	     Moles
	Ca            	 3.9668e-023
	Cl            	 3.6750e-007
	H             	 3.0367e-010
	Na            	 9.0526e-016
	O             	 3.0367e-010

Sorbedhfo_s   
	 1.249e-005  moles
	                                   Mole                     Log
	Species               Moles    Fraction    Molality    Molality

	Sorbedhfo_sOH    9.521e-006       0.762  9.521e-006      -5.021
	Sorbedhfo_sOH2+  1.443e-006       0.116  1.443e-006      -5.841
	Sorbedhfo_sO-    1.439e-006       0.115  1.439e-006      -5.842
	Sorbedhfo_sOHCa+2  8.455e-008       0.007  8.455e-008      -7.073

Sorbedhfo_w   
	 4.870e-004  moles
	                                   Mole                     Log
	Species               Moles    Fraction    Molality    Molality

	Sorbedhfo_wOH    3.738e-004       0.768  3.738e-004      -3.427
	Sorbedhfo_wOH2+  5.668e-005       0.116  5.668e-005      -4.247
	Sorbedhfo_wO-    5.649e-005       0.116  5.649e-005      -4.248
	Sorbedhfo_wOCa+  6.462e-009       0.000  6.462e-009      -8.190

Sub           
	 1.365e-019  Surface + diffuse layer charge, eq
	 0.000e+000  Surface charge, eq
	 0.000e+000  sigma, C/m**2
	-5.844e-014  psi, V
	 2.275e-012  -F*psi/RT
	 1.000e+000  exp(-F*psi/RT)
	 1.000e+004  specific area, m**2/g
	 3.754e+000  m**2 for  3.754e-004 g

	Water in diffuse layer: 3.754e-009 kg,  6.5% of total DDL-water.

	Total moles in diffuse layer (excluding water), Donnan calculation 

	Element       	     Moles
	Ca            	 1.9376e-015
	Cl            	 2.5876e-012
	H             	 2.2155e-015
	Na            	 2.5858e-012
	O             	 2.1423e-015

Sub           
	 3.754e-007  moles
	                                   Mole                     Log
	Species               Moles    Fraction    Molality    Molality

	Sub              3.754e-007       1.000  3.754e-007      -6.426

----------------------------------User print-----------------------------------

Adapting surface in            6 

------------------------------Surface composition------------------------------

Sorbedhfo     
	 1.288e-015  Surface + diffuse layer charge, eq
	 4.828e-009  Surface charge, eq
	 2.825e-002  sigma, C/m**2
	 1.496e-001  psi, V
	-5.822e+000  -F*psi/RT
	 2.962e-003  exp(-F*psi/RT)
	 6.000e+002  specific area, m**2/g
	 1.649e-002  m**2 for  2.748e-005 g

	Water in diffuse layer: 1.649e-011 kg,  0.3% of total DDL-water.

	Total moles in diffuse layer (excluding water), Donnan calculation 

	Element       	     Moles
	Ca            	 6.4448e-029
	Cl            	 4.8280e-009
	H             	 2.5789e-014
	Na            	 2.6638e-020
	O             	 2.5789e-014

Sorbedhfo_s   
	 7.808e-009  moles
	                                   Mole                     Log
	Species               Moles    Fraction    Molality    Molality

	Sorbedhfo_sOH    5.991e-009       0.767  5.991e-009      -8.223
	Sorbedhfo_sOH2+  9.691e-010       0.124  9.691e-010      -9.014
	Sorbedhfo_sO-    8.484e-010       0.109  8.484e-010      -9.071
	Sorbedhfo_sOHCa+2  3.370e-015       0.000  3.370e-015     -14.472

Sorbedhfo_w   
	 3.045e-007  moles
	                                   Mole                     Log
	Species               Moles    Fraction    Molality    Molality

	Sorbedhfo_wOH    2.336e-007       0.767  2.336e-007      -6.631
	Sorbedhfo_wOH2+  3.779e-008       0.124  3.779e-008      -7.423
	Sorbedhfo_wO-    3.309e-008       0.109  3.309e-008      -7.480
	Sorbedhfo_wOCa+  2.398e-016       0.000  2.398e-016     -15.620

Sua           
	 1.423e-016  Surface + diffuse layer charge, eq
	 0.000e+000  Surface charge, eq
	 0.000e+000  sigma, C/m**2
	-1.550e-010  psi, V
	 6.033e-009  -F*psi/RT
	 1.000e+000  exp(-F*psi/RT)
	 1.000e+004  specific area, m**2/g
	 1.500e+000  m**2 for  1.500e-004 g

	Water in diffuse layer: 1.500e-009 kg, 28.4% of total DDL-water.

	Total moles in diffuse layer (excluding water), Donnan calculation 

	Element       	     Moles
	Ca            	 1.0304e-015
	Cl            	 1.0341e-012
	H             	 4.3312e-015
	Na            	 1.0279e-012
	O             	 6.8761e-018

Sua           
	 1.500e-007  moles
	                                   Mole                     Log
	Species               Moles    Fraction    Molality    Molality

	Sua              1.500e-007       1.000  1.500e-007      -6.824

Sub           
	 3.559e-016  Surface + diffuse layer charge, eq
	 0.000e+000  Surface charge, eq
	 0.000e+000  sigma, C/m**2
	-1.550e-010  psi, V
	 6.033e-009  -F*psi/RT
	 1.000e+000  exp(-F*psi/RT)
	 1.000e+004  specific area, m**2/g
	 3.751e+000  m**2 for  3.751e-004 g

	Water in diffuse layer: 3.751e-009 kg, 70.9% of total DDL-water.

	Total moles in diffuse layer (excluding water), Donnan calculation 

	Element       	     Moles
	Ca            	 2.5766e-015
	Cl            	 2.5859e-012
	H             	 1.0830e-014
	Na            	 2.5703e-012
	O             	 1.7194e-017

Sub           
	 3.751e-007  moles
	                                   Mole                     Log
	Species               Moles    Fraction    Molality    Molality

	Sub              3.751e-007       1.000  3.751e-007      -6.426

Hfo           
	 1.803e-015  Surface + diffuse layer charge, eq
	 6.757e-009  Surface charge, eq
	 2.825e-002  sigma, C/m**2
	 1.496e-001  psi, V
	-5.822e+000  -F*psi/RT
	 2.962e-003  exp(-F*psi/RT)
	 6.000e+002  specific area, m**2/g
	 2.308e-002  m**2 for  3.847e-005 g

	Water in diffuse layer: 2.308e-011 kg,  0.4% of total DDL-water.

	Total moles in diffuse layer (excluding water), Donnan calculation 

	Element       	     Moles
	Ca            	 9.0200e-029
	Cl            	 6.7573e-009
	H             	 3.6094e-014
	Na            	 3.7283e-020
	O             	 3.6094e-014

Hfo_s         
	 1.093e-008  moles
	                                   Mole                     Log
	Species               Moles    Fraction    Molality    Molality

	Hfo_sOH          8.384e-009       0.767  8.384e-009      -8.077
	Hfo_sOH2+        1.356e-009       0.124  1.356e-009      -8.868
	Hfo_sO-          1.187e-009       0.109  1.187e-009      -8.925
	Hfo_sOHCa+2      4.716e-015       0.000  4.716e-015     -14.326

Hfo_w         
	 4.262e-007  moles
	                                   Mole                     Log
	Species               Moles    Fraction    Molality    Molality

	Hfo_wOH          3.270e-007       0.767  3.270e-007      -6.485
	Hfo_wOH2+        5.290e-008       0.124  5.290e-008      -7.277
	Hfo_wO-          4.631e-008       0.109  4.631e-008      -7.334
	Hfo_wOCa+        3.356e-016       0.000  3.356e-016     -15.474

----------------------------------User print-----------------------------------

Adapting surface in            3 

------------------------------Surface composition------------------------------

Hfo           
	 1.909e-012  Surface + diffuse layer charge, eq
	 1.358e-006  Surface charge, eq
	 9.943e-003  sigma, C/m**2
	 1.166e-001  psi, V
	-4.539e+000  -F*psi/RT
	 1.068e-002  exp(-F*psi/RT)
	 6.000e+002  specific area, m**2/g
	 1.318e+001  m**2 for  2.196e-002 g

	Water in diffuse layer: 1.318e-008 kg, 66.6% of total DDL-water.

	Total moles in diffuse layer (excluding water), Donnan calculation 

	Element       	     Moles
	Ca            	 4.1331e-026
	Cl            	 1.3576e-006
	H             	 5.9807e-011
	Na            	 1.2485e-017
	O             	 5.9807e-011

Hfo_s         
	 6.239e-006  moles
	                                   Mole                     Log
	Species               Moles    Fraction    Molality    Molality

	Hfo_sOH          4.789e-006       0.768  4.789e-006      -5.320
	Hfo_sOH2+        7.420e-007       0.119  7.420e-007      -6.130
	Hfo_sO-          7.080e-007       0.113  7.080e-007      -6.150
	Hfo_sOHCa+2      1.625e-011       0.000  1.625e-011     -10.789

Hfo_w         
	 2.433e-004  moles
	                                   Mole                     Log
	Species               Moles    Fraction    Molality    Molality

	Hfo_wOH          1.868e-004       0.768  1.868e-004      -3.729
	Hfo_wOH2+        2.894e-005       0.119  2.894e-005      -4.539
	Hfo_wO-          2.761e-005       0.113  2.761e-005      -4.559
	Hfo_wOCa+        1.207e-012       0.000  1.207e-012     -11.918

Sua           
	 1.744e-026  Surface + diffuse layer charge, eq
	 0.000e+000  Surface charge, eq
	 0.000e+000  sigma, C/m**2
	-2.777e-012  psi, V
	 1.081e-010  -F*psi/RT
	 1.000e+000  exp(-F*psi/RT)
	 1.000e+004  specific area, m**2/g
	 1.500e-008  m**2 for  1.500e-012 g

	Water in diffuse layer: 1.500e-017 kg,  0.0% of total DDL-water.

	Total moles in diffuse layer (excluding water), Donnan calculation 

	Element       	     Moles
	Ca            	 4.7502e-024
	Cl            	 4.6894e-021
	H             	 1.1577e-023
	Na            	 4.6688e-021
	O             	 2.1960e-025

Sua           
	 1.500e-015  moles
	                                   Mole                     Log
	Species               Moles    Fraction    Molality    Molality

	Sua              1.500e-015       1.000  1.500e-015     -14.824

Sub           
	 2.617e-026  Surface + diffuse layer charge, eq
	 0.000e+000  Surface charge, eq
	 0.000e+000  sigma, C/m**2
	-2.777e-012  psi, V
	 1.081e-010  -F*psi/RT
	 1.000e+000  exp(-F*psi/RT)
	 1.000e+004  specific area, m**2/g
	 2.250e-008  m**2 for  2.250e-012 g

	Water in diffuse layer: 2.250e-017 kg,  0.0% of total DDL-water.

	Total moles in diffuse layer (excluding water), Donnan calculation 

	Element       	     Moles
	Ca            	 7.1280e-024
	Cl            	 7.0368e-021
	H             	 1.7371e-023
	Na            	 7.0059e-021
	O             	 3.2952e-025

Sub           
	 2.250e-015  moles
	                                   Mole                     Log
	Species               Moles    Fraction    Molality    Molality

	Sub              2.250e-015       1.000  2.250e-015     -14.648

Sorbedhfo     
	 9.553e-013  Surface + diffuse layer charge, eq
	 6.794e-007  Surface charge, eq
	 9.943e-003  sigma, C/m**2
	 1.166e-001  psi, V
	-4.539e+000  -F*psi/RT
	 1.068e-002  exp(-F*psi/RT)
	 6.000e+002  specific area, m**2/g
	 6.594e+000  m**2 for  1.099e-002 g

	Water in diffuse layer: 6.594e-009 kg, 33.4% of total DDL-water.

	Total moles in diffuse layer (excluding water), Donnan calculation 

	Element       	     Moles
	Ca            	 2.0684e-026
	Cl            	 6.7941e-007
	H             	 2.9930e-011
	Na            	 6.2483e-018
	O             	 2.9930e-011

Sorbedhfo_s   
	 3.122e-006  moles
	                                   Mole                     Log
	Species               Moles    Fraction    Molality    Molality

	Sorbedhfo_sOH    2.397e-006       0.768  2.397e-006      -5.620
	Sorbedhfo_sOH2+  3.713e-007       0.119  3.713e-007      -6.430
	Sorbedhfo_sO-    3.543e-007       0.113  3.543e-007      -6.451
	Sorbedhfo_sOHCa+2  8.133e-012       0.000  8.133e-012     -11.090

Sorbedhfo_w   
	 1.218e-004  moles
	                                   Mole                     Log
	Species               Moles    Fraction    Molality    Molality

	Sorbedhfo_wOH    9.346e-005       0.768  9.346e-005      -4.029
	Sorbedhfo_wOH2+  1.448e-005       0.119  1.448e-005      -4.839
	Sorbedhfo_wO-    1.382e-005       0.113  1.382e-005      -4.860
	Sorbedhfo_wOCa+  6.041e-013       0.000  6.041e-013     -12.219

----------------------------------User print-----------------------------------

Adapting surface in            7 

------------------------------Surface composition------------------------------

Sub           
	-5.506e-025  Surface + diffuse layer charge, eq
	 0.000e+000  Surface charge, eq
	 0.000e+000  sigma, C/m**2
	 5.950e-011  psi, V
	-2.316e-009  -F*psi/RT
	 1.000e+000  exp(-F*psi/RT)
	 1.000e+004  specific area, m**2/g
	 2.250e-008  m**2 for  2.250e-012 g

	Water in diffuse layer: 2.250e-017 kg,  0.0% of total DDL-water.

	Total moles in diffuse layer (excluding water), Donnan calculation 

	Element       	     Moles
	Ca            	 7.1608e-024
	Cl            	 7.0272e-021
	H             	 1.3531e-023
	Na            	 7.0250e-021
	O             	 1.3107e-023

Sub           
	 2.250e-015  moles
	                                   Mole                     Log
	Species               Moles    Fraction    Molality    Molality

	Sub              2.250e-015       1.000  2.250e-015     -14.648

Sorbedhfo     
	-2.249e-015  Surface + diffuse layer charge, eq
	 2.978e-011  Surface charge, eq
	 8.712e-004  sigma, C/m**2
	 2.096e-002  psi, V
	-8.159e-001  -F*psi/RT
	 4.423e-001  exp(-F*psi/RT)
	 6.000e+002  specific area, m**2/g
	 3.299e-003  m**2 for  5.498e-006 g

	Water in diffuse layer: 3.299e-012 kg, 25.0% of total DDL-water.

	Total moles in diffuse layer (excluding water), Donnan calculation 

	Element       	     Moles
	Ca            	 1.6110e-027
	Cl            	 2.9728e-011
	H             	 5.5352e-014
	Na            	 3.6071e-020
	O             	 5.5352e-014

Sorbedhfo_s   
	 1.562e-009  moles
	                                   Mole                     Log
	Species               Moles    Fraction    Molality    Molality

	Sorbedhfo_sOH    1.194e-009       0.764  1.194e-009      -8.923
	Sorbedhfo_sOH2+  1.808e-010       0.116  1.808e-010      -9.743
	Sorbedhfo_sO-    1.805e-010       0.116  1.805e-010      -9.744
	Sorbedhfo_sOHCa+2  6.934e-012       0.004  6.934e-012     -11.159

Sorbedhfo_w   
	 6.091e-008  moles
	                                   Mole                     Log
	Species               Moles    Fraction    Molality    Molality

	Sorbedhfo_wOH    4.676e-008       0.768  4.676e-008      -7.330
	Sorbedhfo_wOH2+  7.084e-009       0.116  7.084e-009      -8.150
	Sorbedhfo_wO-    7.069e-009       0.116  7.069e-009      -8.151
	Sorbedhfo_wOCa+  5.291e-013       0.000  5.291e-013     -12.276

Hfo           
	-6.742e-015  Surface + diffuse layer charge, eq
	 8.927e-011  Surface charge, eq
	 8.712e-004  sigma, C/m**2
	 2.096e-002  psi, V
	-8.159e-001  -F*psi/RT
	 4.423e-001  exp(-F*psi/RT)
	 6.000e+002  specific area, m**2/g
	 9.888e-003  m**2 for  1.648e-005 g

	Water in diffuse layer: 9.888e-012 kg, 75.0% of total DDL-water.

	Total moles in diffuse layer (excluding water), Donnan calculation 

	Element       	     Moles
	Ca            	 4.8293e-027
	Cl            	 8.9115e-011
	H             	 1.6593e-013
	Na            	 1.0813e-019
	O             	 1.6593e-013

Hfo_s         
	 4.682e-009  moles
	                                   Mole                     Log
	Species               Moles    Fraction    Molality    Molality

	Hfo_sOH          3.578e-009       0.764  3.578e-009      -8.446
	Hfo_sOH2+        5.421e-010       0.116  5.421e-010      -9.266
	Hfo_sO-          5.410e-010       0.116  5.410e-010      -9.267
	Hfo_sOHCa+2      2.079e-011       0.004  2.079e-011     -10.682

Hfo_w         
	 1.826e-007  moles
	                                   Mole                     Log
	Species               Moles    Fraction    Molality    Molality

	Hfo_wOH          1.402e-007       0.768  1.402e-007      -6.853
	Hfo_wOH2+        2.124e-008       0.116  2.124e-008      -7.673
	Hfo_wO-          2.119e-008       0.116  2.119e-008      -7.674
	Hfo_wOCa+        1.586e-012       0.000  1.586e-012     -11.800

Sua           
	-3.669e-025  Surface + diffuse layer charge, eq
	 0.000e+000  Surface charge, eq
	 0.000e+000  sigma, C/m**2
	 5.950e-011  psi, V
	-2.316e-009  -F*psi/RT
	 1.000e+000  exp(-F*psi/RT)
	 1.000e+004  specific area, m**2/g
	 1.500e-008  m**2 for  1.500e-012 g

	Water in diffuse layer: 1.500e-017 kg,  0.0% of total DDL-water.

	Total moles in diffuse layer (excluding water), Donnan calculation 

	Element       	     Moles
	Ca            	 4.7721e-024
	Cl            	 4.6830e-021
	H             	 9.0171e-024
	Na            	 4.6816e-021
	O             	 8.7349e-024

Sua           
	 1.500e-015  moles
	                                   Mole                     Log
	Species               Moles    Fraction    Molality    Molality

	Sua              1.500e-015       1.000  1.500e-015     -14.824

