   Input file: sc6b
  Output file: sc6b.out
Database file: phreeqc.dat

------------------
Reading data base.
------------------

	SOLUTION_MASTER_SPECIES
	SOLUTION_SPECIES
	PHASES
	EXCHANGE_MASTER_SPECIES
	EXCHANGE_SPECIES
	SURFACE_MASTER_SPECIES
	SURFACE_SPECIES
	RATES
	END
------------------------------------
Reading input data for simulation 1.
------------------------------------

	SOLUTION_SPECIES
	 Na+ = Na+
	 log_k 0
	 gamma 1e10 0
	 Ca+2 = Ca+2
	 log_k 0
	 gamma 1e10 0
	 Cl- = Cl-
	 log_k 0
	 gamma 1e10 0
	 H2O + 0.01e- = H2O-0.01
	 log_k -9
	SURFACE_MASTER_SPECIES
	 Sua Sua
	 Sub Sub
	 Suc Suc
	SURFACE_SPECIES
	 Sua = Sua
	 log_k 0
	 Sub = Sub
	 log_k 0
	 Suc = Suc
	 log_k 0
	SURFACE_MASTER_SPECIES /* defined sorbed form of Hfo = Sorbedhfo */
	 Sorbedhfo_s Sorbedhfo_sOH
	 Sorbedhfo_w Sorbedhfo_wOH
	SURFACE_SPECIES
	 Sorbedhfo_sOH = Sorbedhfo_sOH
	 log_k 0.0
	 Sorbedhfo_sOH + H+ = Sorbedhfo_sOH2+
	 log_k 7.29
	 Sorbedhfo_sOH = Sorbedhfo_sO- + H+
	 log_k -8.93
	 Sorbedhfo_wOH = Sorbedhfo_wOH
	 log_k 0.0
	 Sorbedhfo_wOH + H+ = Sorbedhfo_wOH2+
	 log_k 7.29
	 Sorbedhfo_wOH = Sorbedhfo_wO- + H+
	 log_k -8.93
	 Sorbedhfo_sOH + Ca+2 = Sorbedhfo_sOHCa+2
	 log_k 4.97
	 Sorbedhfo_wOH + Ca+2 = Sorbedhfo_wOCa+ + H+
	 log_k -5.85
	 Sorbedhfo_sOH + Zn+2 = Sorbedhfo_sOZn+ + H+
	 log_k 0.99
	 Sorbedhfo_wOH + Zn+2 = Sorbedhfo_wOZn+ + H+
	 log_k -1.99
	SOLUTION 0-21
	END          
-------------------------------------------
Beginning of initial solution calculations.
-------------------------------------------

Initial solution 0.	

-----------------------------Solution composition------------------------------

	Elements           Molality       Moles

	Pure water     

----------------------------Description of solution----------------------------

                                       pH  =   7.000    
                                       pe  =   4.000    
                        Activity of water  =   1.000
                           Ionic strength  =  1.001e-007
                       Mass of water (kg)  =  1.000e+000
                 Total alkalinity (eq/kg)  =  1.082e-010
                    Total carbon (mol/kg)  =  0.000e+000
                       Total CO2 (mol/kg)  =  0.000e+000
                      Temperature (deg C)  =  25.000
                  Electrical balance (eq)  = -1.173e-010
 Percent error, 100*(Cat-|An|)/(Cat+|An|)  =  -0.06
                               Iterations  =   0
                                  Total H  = 1.110124e+002
                                  Total O  = 5.550622e+001

----------------------------Distribution of species----------------------------

                                                   Log       Log         Log 
   Species                 Molality    Activity  Molality  Activity     Gamma

   OH-                   1.002e-007  1.001e-007    -6.999    -6.999    -0.000
   H+                    1.001e-007  1.000e-007    -7.000    -7.000    -0.000
   H2O-0.01              9.120e-010  9.120e-010    -9.040    -9.040    -0.000
   H2O                   5.551e+001  1.000e+000     1.744     0.000     0.000
H(0)            1.416e-025
   H2                    7.079e-026  7.079e-026   -25.150   -25.150     0.000
O(0)            0.000e+000
   O2                    0.000e+000  0.000e+000   -42.080   -42.080     0.000

------------------------------Saturation indices-------------------------------

	Phase               SI log IAP  log KT

	H2(g)           -22.00  -25.15   -3.15  H2
	H2O(g)           -1.51    0.00    1.51  H2O
	O2(g)           -39.12  -42.08   -2.96  O2

------------------
End of simulation.
------------------

------------------------------------
Reading input data for simulation 2.
------------------------------------

	SOLUTION 0
	 Na 1
	 Ca 1e-3
	 Cl 1
	SURFACE 0
	 Sua 1e-3 1e4 1 Dw 1e-9
	 donnan 1e-12 #d 1 l 0.99 v 1# 1e-9
	 Sub 1e-3 1e4 1 Dw 1e-12
	 donnan 1e-12 #d 1 l 0.99 v 1# 1e-9
	 Hfo_w 97.5e-5 600 88e-3 Dw 1e-12
	 Hfo_s 2.5e-5
	 donnan 1e-12 #d 1 l 0.99 v 1# 1e-9
	 equilibrate 0
	END
-------------------------------------------
Beginning of initial solution calculations.
-------------------------------------------

Initial solution 0.	

-----------------------------Solution composition------------------------------

	Elements           Molality       Moles

	Ca               1.000e-006  1.000e-006
	Cl               1.000e-003  1.000e-003
	Na               1.000e-003  1.000e-003

----------------------------Description of solution----------------------------

                                       pH  =   7.000    
                                       pe  =   4.000    
                        Activity of water  =   1.000
                           Ionic strength  =  1.002e-003
                       Mass of water (kg)  =  1.000e+000
                 Total alkalinity (eq/kg)  =  3.702e-010
                    Total carbon (mol/kg)  =  0.000e+000
                       Total CO2 (mol/kg)  =  0.000e+000
                      Temperature (deg C)  =  25.000
                  Electrical balance (eq)  =  2.000e-006
 Percent error, 100*(Cat-|An|)/(Cat+|An|)  =   0.10
                               Iterations  =   1
                                  Total H  = 1.110124e+002
                                  Total O  = 5.550622e+001

----------------------------Distribution of species----------------------------

                                                   Log       Log         Log 
   Species                 Molality    Activity  Molality  Activity     Gamma

   OH-                   1.038e-007  1.001e-007    -6.984    -7.000    -0.016
   H+                    1.035e-007  1.000e-007    -6.985    -7.000    -0.015
   H2O-0.01              9.120e-010  9.120e-010    -9.040    -9.040    -0.000
   H2O                   5.551e+001  1.000e+000     1.744    -0.000     0.000
Ca              1.000e-006
   Ca+2                  1.000e-006  1.000e-006    -6.000    -6.000    -0.000
   CaOH+                 1.720e-012  1.660e-012   -11.765   -11.780    -0.015
Cl              1.000e-003
   Cl-                   1.000e-003  1.000e-003    -3.000    -3.000    -0.000
H(0)            1.416e-025
   H2                    7.078e-026  7.079e-026   -25.150   -25.150     0.000
Na              1.000e-003
   Na+                   1.000e-003  1.000e-003    -3.000    -3.000    -0.000
   NaOH                  6.605e-011  6.607e-011   -10.180   -10.180     0.000
O(0)            0.000e+000
   O2                    0.000e+000  0.000e+000   -42.080   -42.080     0.000

------------------------------Saturation indices-------------------------------

	Phase               SI log IAP  log KT

	H2(g)           -22.00  -25.15   -3.15  H2
	H2O(g)           -1.51   -0.00    1.51  H2O
	Halite           -7.58   -6.00    1.58  NaCl
	O2(g)           -39.12  -42.08   -2.96  O2

------------------------------------------------------
Beginning of initial surface-composition calculations.
------------------------------------------------------

Surface 0.	

Hfo           
	 8.554e-018  Surface + diffuse layer charge, eq
	 3.338e-006  Surface charge, eq
	 6.101e-003  sigma, C/m**2
	 6.530e-002  psi, V
	-2.542e+000  -F*psi/RT
	 7.874e-002  exp(-F*psi/RT)
	 6.000e+002  specific area, m**2/g
	 5.280e+001  m**2 for  8.800e-002 g

	Water in diffuse layer: 5.280e-008 kg,  0.3% of total DDL-water.

	Total moles in diffuse layer (excluding water), Donnan calculation 

	Element       	     Moles
	Ca            	 1.4647e-023
	Cl            	 3.3380e-006
	H             	 3.4634e-010
	Na            	 8.3866e-016
	O             	 3.4634e-010

Hfo_s         
	 2.500e-005  moles
	                                   Mole                     Log
	Species               Moles    Fraction    Molality    Molality

	Hfo_sOH          1.918e-005       0.767  1.918e-005      -4.717
	Hfo_sOH2+        2.945e-006       0.118  2.945e-006      -5.531
	Hfo_sO-          2.862e-006       0.114  2.862e-006      -5.543
	Hfo_sOHCa+2      1.110e-008       0.000  1.110e-008      -7.955

Hfo_w         
	 9.750e-004  moles
	                                   Mole                     Log
	Species               Moles    Fraction    Molality    Molality

	Hfo_wOH          7.484e-004       0.768  7.484e-004      -3.126
	Hfo_wOH2+        1.149e-004       0.118  1.149e-004      -3.940
	Hfo_wO-          1.117e-004       0.115  1.117e-004      -3.952
	Hfo_wOCa+        8.324e-010       0.000  8.324e-010      -9.080

Sua           
	-1.696e-024  Surface + diffuse layer charge, eq
	 0.000e+000  Surface charge, eq
	 0.000e+000  sigma, C/m**2
	 1.126e-022  psi, V
	-4.383e-021  -F*psi/RT
	 1.000e+000  exp(-F*psi/RT)
	 1.000e+004  specific area, m**2/g
	 1.000e+004  m**2 for  1.000e+000 g

	Water in diffuse layer: 1.000e-005 kg, 49.9% of total DDL-water.

	Total moles in diffuse layer (excluding water), Donnan calculation 

	Element       	     Moles
	Ca            	 9.9801e-012
	Cl            	 1.0010e-008
	H             	 2.0910e-012
	Na            	 9.9900e-009
	O             	 1.0484e-012

Sua           
	 1.000e-003  moles
	                                   Mole                     Log
	Species               Moles    Fraction    Molality    Molality

	Sua              1.000e-003       1.000  1.000e-003      -3.000

Sub           
	-1.696e-024  Surface + diffuse layer charge, eq
	 0.000e+000  Surface charge, eq
	 0.000e+000  sigma, C/m**2
	 1.126e-022  psi, V
	-4.383e-021  -F*psi/RT
	 1.000e+000  exp(-F*psi/RT)
	 1.000e+004  specific area, m**2/g
	 1.000e+004  m**2 for  1.000e+000 g

	Water in diffuse layer: 1.000e-005 kg, 49.9% of total DDL-water.

	Total moles in diffuse layer (excluding water), Donnan calculation 

	Element       	     Moles
	Ca            	 9.9801e-012
	Cl            	 1.0010e-008
	H             	 2.0910e-012
	Na            	 9.9900e-009
	O             	 1.0484e-012

Sub           
	 1.000e-003  moles
	                                   Mole                     Log
	Species               Moles    Fraction    Molality    Molality

	Sub              1.000e-003       1.000  1.000e-003      -3.000

-----------------------------------------
Beginning of batch-reaction calculations.
-----------------------------------------

Reaction step 1.

Using solution 0.	
Using surface 0.	Surface assemblage after simulation 2.

------------------------------Surface composition------------------------------

Hfo           
	-1.271e-012  Surface + diffuse layer charge, eq
	 3.338e-006  Surface charge, eq
	 6.101e-003  sigma, C/m**2
	 6.530e-002  psi, V
	-2.542e+000  -F*psi/RT
	 7.874e-002  exp(-F*psi/RT)
	 6.000e+002  specific area, m**2/g
	 5.280e+001  m**2 for  8.800e-002 g

	Water in diffuse layer: 5.280e-008 kg,  0.3% of total DDL-water.

	Total moles in diffuse layer (excluding water), Donnan calculation 

	Element       	     Moles
	Ca            	 1.4647e-023
	Cl            	 3.3380e-006
	H             	 3.4634e-010
	Na            	 8.3866e-016
	O             	 3.4634e-010

Hfo_s         
	 2.500e-005  moles
	                                   Mole                     Log
	Species               Moles    Fraction    Molality    Molality

	Hfo_sOH          1.918e-005       0.767  1.918e-005      -4.717
	Hfo_sOH2+        2.945e-006       0.118  2.945e-006      -5.531
	Hfo_sO-          2.862e-006       0.114  2.862e-006      -5.543
	Hfo_sOHCa+2      1.110e-008       0.000  1.110e-008      -7.955

Hfo_w         
	 9.750e-004  moles
	                                   Mole                     Log
	Species               Moles    Fraction    Molality    Molality

	Hfo_wOH          7.484e-004       0.768  7.484e-004      -3.126
	Hfo_wOH2+        1.149e-004       0.118  1.149e-004      -3.940
	Hfo_wO-          1.117e-004       0.115  1.117e-004      -3.952
	Hfo_wOCa+        8.324e-010       0.000  8.324e-010      -9.080

Sua           
	-8.765e-018  Surface + diffuse layer charge, eq
	 0.000e+000  Surface charge, eq
	 0.000e+000  sigma, C/m**2
	 1.167e-015  psi, V
	-4.542e-014  -F*psi/RT
	 1.000e+000  exp(-F*psi/RT)
	 1.000e+004  specific area, m**2/g
	 1.000e+004  m**2 for  1.000e+000 g

	Water in diffuse layer: 1.000e-005 kg, 49.9% of total DDL-water.

	Total moles in diffuse layer (excluding water), Donnan calculation 

	Element       	     Moles
	Ca            	 9.9801e-012
	Cl            	 1.0010e-008
	H             	 2.0910e-012
	Na            	 9.9900e-009
	O             	 1.0484e-012

Sua           
	 1.000e-003  moles
	                                   Mole                     Log
	Species               Moles    Fraction    Molality    Molality

	Sua              1.000e-003       1.000  1.000e-003      -3.000

Sub           
	-8.765e-018  Surface + diffuse layer charge, eq
	 0.000e+000  Surface charge, eq
	 0.000e+000  sigma, C/m**2
	 1.167e-015  psi, V
	-4.542e-014  -F*psi/RT
	 1.000e+000  exp(-F*psi/RT)
	 1.000e+004  specific area, m**2/g
	 1.000e+004  m**2 for  1.000e+000 g

	Water in diffuse layer: 1.000e-005 kg, 49.9% of total DDL-water.

	Total moles in diffuse layer (excluding water), Donnan calculation 

	Element       	     Moles
	Ca            	 9.9801e-012
	Cl            	 1.0010e-008
	H             	 2.0910e-012
	Na            	 9.9900e-009
	O             	 1.0484e-012

Sub           
	 1.000e-003  moles
	                                   Mole                     Log
	Species               Moles    Fraction    Molality    Molality

	Sub              1.000e-003       1.000  1.000e-003      -3.000

-----------------------------Solution composition------------------------------

	Elements           Molality       Moles

	Ca               1.000e-006  1.000e-006
	Cl               1.000e-003  1.000e-003
	Na               1.000e-003  1.000e-003

----------------------------Description of solution----------------------------

                                       pH  =   7.000      Charge balance
                                       pe  =   3.981      Adjusted to redox equilibrium
                        Activity of water  =   1.000
                           Ionic strength  =  1.002e-003
                       Mass of water (kg)  =  1.000e+000
                 Total alkalinity (eq/kg)  =  3.701e-010
                    Total carbon (mol/kg)  =  0.000e+000
                       Total CO2 (mol/kg)  =  0.000e+000
                      Temperature (deg C)  =  25.000
                  Electrical balance (eq)  =  2.000e-006
 Percent error, 100*(Cat-|An|)/(Cat+|An|)  =   0.10
                               Iterations  =   0
                                  Total H  = 1.110124e+002
                                  Total O  = 5.550622e+001

----------------------------Distribution of species----------------------------

                                                   Log       Log         Log 
   Species                 Molality    Activity  Molality  Activity     Gamma

   OH-                   1.038e-007  1.001e-007    -6.984    -7.000    -0.016
   H+                    1.035e-007  1.000e-007    -6.985    -7.000    -0.015
   H2O-0.01              9.124e-010  9.124e-010    -9.040    -9.040    -0.000
   H2O                   5.551e+001  1.000e+000     1.744    -0.000     0.000
Ca              1.000e-006
   Ca+2                  1.000e-006  1.000e-006    -6.000    -6.000    -0.000
   CaOH+                 1.720e-012  1.660e-012   -11.765   -11.780    -0.015
Cl              1.000e-003
   Cl-                   1.000e-003  1.000e-003    -3.000    -3.000    -0.000
H(0)            1.545e-025
   H2                    7.724e-026  7.726e-026   -25.112   -25.112     0.000
Na              1.000e-003
   Na+                   1.000e-003  1.000e-003    -3.000    -3.000    -0.000
   NaOH                  6.605e-011  6.607e-011   -10.180   -10.180     0.000
O(0)            0.000e+000
   O2                    0.000e+000  0.000e+000   -42.156   -42.156     0.000

------------------------------Saturation indices-------------------------------

	Phase               SI log IAP  log KT

	H2(g)           -21.96  -25.11   -3.15  H2
	H2O(g)           -1.51   -0.00    1.51  H2O
	Halite           -7.58   -6.00    1.58  NaCl
	O2(g)           -39.20  -42.16   -2.96  O2

------------------
End of simulation.
------------------

------------------------------------
Reading input data for simulation 3.
------------------------------------

	PRINT
	 reset false
WARNING: Cell-lengths were read for 1 cells. Last value is used till cell 3.
WARNING: Dispersivities were read for 1 cells. Last value is used till cell 3.
----------------------------------User print-----------------------------------


----------------------------------User print-----------------------------------


----------------------------------User print-----------------------------------


----------------------------------User print-----------------------------------


----------------------------------User print-----------------------------------


----------------------------------User print-----------------------------------


----------------------------------User print-----------------------------------

Adapting surface in            1 

------------------------------Surface composition------------------------------

Hfo           
	-4.121e-014  Surface + diffuse layer charge, eq
	 3.201e-006  Surface charge, eq
	 5.853e-003  sigma, C/m**2
	 7.917e-002  psi, V
	-3.082e+000  -F*psi/RT
	 4.589e-002  exp(-F*psi/RT)
	 6.000e+002  specific area, m**2/g
	 5.277e+001  m**2 for  8.796e-002 g

	Water in diffuse layer: 5.277e-008 kg,  0.4% of total DDL-water.

	Total moles in diffuse layer (excluding water), Donnan calculation 

	Element       	     Moles
	Ca            	 2.0488e-024
	Cl            	 3.2006e-006
	H             	 3.8369e-010
	Na            	 2.1851e-016
	O             	 3.8369e-010

Hfo_s         
	 2.499e-005  moles
	                                   Mole                     Log
	Species               Moles    Fraction    Molality    Molality

	Hfo_sOH          1.918e-005       0.768  1.918e-005      -4.717
	Hfo_sOH2+        2.943e-006       0.118  2.943e-006      -5.531
	Hfo_sO-          2.863e-006       0.115  2.863e-006      -5.543
	Hfo_sOHCa+2      1.925e-009       0.000  1.925e-009      -8.716

Hfo_w         
	 9.745e-004  moles
	                                   Mole                     Log
	Species               Moles    Fraction    Molality    Molality

	Hfo_wOH          7.480e-004       0.768  7.480e-004      -3.126
	Hfo_wOH2+        1.148e-004       0.118  1.148e-004      -3.940
	Hfo_wO-          1.117e-004       0.115  1.117e-004      -3.952
	Hfo_wOCa+        1.444e-010       0.000  1.444e-010      -9.840

Sua           
	 9.898e-018  Surface + diffuse layer charge, eq
	 0.000e+000  Surface charge, eq
	 0.000e+000  sigma, C/m**2
	-3.732e-015  psi, V
	 1.453e-013  -F*psi/RT
	 1.000e+000  exp(-F*psi/RT)
	 1.000e+004  specific area, m**2/g
	 4.999e+003  m**2 for  4.999e-001 g

	Water in diffuse layer: 4.999e-006 kg, 33.2% of total DDL-water.

	Total moles in diffuse layer (excluding water), Donnan calculation 

	Element       	     Moles
	Ca            	 2.5428e-012
	Cl            	 2.5019e-009
	H             	 1.1861e-012
	Na            	 2.4963e-009
	O             	 3.0459e-013

Sua           
	 4.999e-004  moles
	                                   Mole                     Log
	Species               Moles    Fraction    Molality    Molality

	Sua              4.999e-004       1.000  4.999e-004      -3.301

Sub           
	 1.979e-017  Surface + diffuse layer charge, eq
	 0.000e+000  Surface charge, eq
	 0.000e+000  sigma, C/m**2
	-3.732e-015  psi, V
	 1.453e-013  -F*psi/RT
	 1.000e+000  exp(-F*psi/RT)
	 1.000e+004  specific area, m**2/g
	 9.995e+003  m**2 for  9.995e-001 g

	Water in diffuse layer: 9.995e-006 kg, 66.4% of total DDL-water.

	Total moles in diffuse layer (excluding water), Donnan calculation 

	Element       	     Moles
	Ca            	 5.0844e-012
	Cl            	 5.0026e-009
	H             	 2.3716e-012
	Na            	 4.9913e-009
	O             	 6.0904e-013

Sub           
	 9.995e-004  moles
	                                   Mole                     Log
	Species               Moles    Fraction    Molality    Molality

	Sub              9.995e-004       1.000  9.995e-004      -3.000

----------------------------------User print-----------------------------------

Adapting surface in            5 

------------------------------Surface composition------------------------------

Hfo           
	 4.892e-022  Surface + diffuse layer charge, eq
	 1.184e-009  Surface charge, eq
	 4.329e-003  sigma, C/m**2
	 6.545e-002  psi, V
	-2.548e+000  -F*psi/RT
	 7.826e-002  exp(-F*psi/RT)
	 6.000e+002  specific area, m**2/g
	 2.640e-002  m**2 for  4.400e-005 g

	Water in diffuse layer: 2.640e-011 kg,  0.0% of total DDL-water.

	Total moles in diffuse layer (excluding water), Donnan calculation 

	Element       	     Moles
	Ca            	 1.8882e-027
	Cl            	 1.1841e-009
	H             	 2.4257e-013
	Na            	 1.4791e-019
	O             	 2.4257e-013

Hfo_s         
	 1.250e-008  moles
	                                   Mole                     Log
	Species               Moles    Fraction    Molality    Molality

	Hfo_sOH          9.593e-009       0.767  9.593e-009      -8.018
	Hfo_sOH2+        1.467e-009       0.117  1.467e-009      -8.834
	Hfo_sO-          1.437e-009       0.115  1.437e-009      -8.842
	Hfo_sOHCa+2      2.735e-012       0.000  2.735e-012     -11.563

Hfo_w         
	 4.875e-007  moles
	                                   Mole                     Log
	Species               Moles    Fraction    Molality    Molality

	Hfo_wOH          3.742e-007       0.768  3.742e-007      -6.427
	Hfo_wOH2+        5.721e-008       0.117  5.721e-008      -7.242
	Hfo_wO-          5.607e-008       0.115  5.607e-008      -7.251
	Hfo_wOCa+        2.060e-013       0.000  2.060e-013     -12.686

Sua           
	 4.183e-024  Surface + diffuse layer charge, eq
	 0.000e+000  Surface charge, eq
	 0.000e+000  sigma, C/m**2
	-5.115e-022  psi, V
	 1.991e-020  -F*psi/RT
	 1.000e+000  exp(-F*psi/RT)
	 1.000e+004  specific area, m**2/g
	 4.998e+003  m**2 for  4.998e-001 g

	Water in diffuse layer: 4.998e-006 kg, 99.9% of total DDL-water.

	Total moles in diffuse layer (excluding water), Donnan calculation 

	Element       	     Moles
	Ca            	 2.4933e-012
	Cl            	 2.5008e-009
	H             	 1.0349e-012
	Na            	 2.4958e-009
	O             	 5.1706e-013

Sua           
	 4.998e-004  moles
	                                   Mole                     Log
	Species               Moles    Fraction    Molality    Molality

	Sua              4.998e-004       1.000  4.998e-004      -3.301

Sub           
	 5.379e-027  Surface + diffuse layer charge, eq
	 0.000e+000  Surface charge, eq
	 0.000e+000  sigma, C/m**2
	-1.159e-021  psi, V
	 4.513e-020  -F*psi/RT
	 1.000e+000  exp(-F*psi/RT)
	 1.000e+004  specific area, m**2/g
	 5.000e+000  m**2 for  5.000e-004 g

	Water in diffuse layer: 5.000e-009 kg,  0.1% of total DDL-water.

	Total moles in diffuse layer (excluding water), Donnan calculation 

	Element       	     Moles
	Ca            	 2.4941e-015
	Cl            	 2.5015e-012
	H             	 1.0352e-015
	Na            	 2.4965e-012
	O             	 5.1721e-016

Sub           
	 5.000e-007  moles
	                                   Mole                     Log
	Species               Moles    Fraction    Molality    Molality

	Sub              5.000e-007       1.000  5.000e-007      -6.301

----------------------------------User print-----------------------------------

Adapting surface in            2 

------------------------------Surface composition------------------------------

Hfo           
	-4.832e-019  Surface + diffuse layer charge, eq
	 1.595e-014  Surface charge, eq
	 9.724e-005  sigma, C/m**2
	 6.566e-002  psi, V
	-2.556e+000  -F*psi/RT
	 7.764e-002  exp(-F*psi/RT)
	 6.000e+002  specific area, m**2/g
	 1.583e-005  m**2 for  2.639e-008 g

	Water in diffuse layer: 1.583e-014 kg,  0.0% of total DDL-water.

	Total moles in diffuse layer (excluding water), Donnan calculation 

	Element       	     Moles
	Ca            	 1.1239e-036
	Cl            	 9.5704e-015
	H             	 6.3842e-015
	Na            	 7.4611e-028
	O             	 6.3842e-015

Hfo_s         
	 7.496e-012  moles
	                                   Mole                     Log
	Species               Moles    Fraction    Molality    Molality

	Hfo_sOH          5.754e-012       0.768  5.754e-012     -11.240
	Hfo_sOH2+        8.712e-013       0.116  8.712e-013     -12.060
	Hfo_sO-          8.708e-013       0.116  8.708e-013     -12.060
	Hfo_sOHCa+2      4.847e-019       0.000  4.847e-019     -18.315

Hfo_w         
	 2.924e-010  moles
	                                   Mole                     Log
	Species               Moles    Fraction    Molality    Molality

	Hfo_wOH          2.244e-010       0.768  2.244e-010      -9.649
	Hfo_wOH2+        3.398e-011       0.116  3.398e-011     -10.469
	Hfo_wO-          3.396e-011       0.116  3.396e-011     -10.469
	Hfo_wOCa+        3.685e-020       0.000  3.685e-020     -19.434

Sua           
	 6.058e-022  Surface + diffuse layer charge, eq
	 0.000e+000  Surface charge, eq
	 0.000e+000  sigma, C/m**2
	-3.817e-014  psi, V
	 1.486e-012  -F*psi/RT
	 1.000e+000  exp(-F*psi/RT)
	 1.000e+004  specific area, m**2/g
	 1.500e+000  m**2 for  1.500e-004 g

	Water in diffuse layer: 1.500e-009 kg, 99.8% of total DDL-water.

	Total moles in diffuse layer (excluding water), Donnan calculation 

	Element       	     Moles
	Ca            	 2.2468e-019
	Cl            	 2.2519e-016
	H             	 3.0309e-016
	Na            	 2.2485e-016
	O             	 1.5159e-016

Sua           
	 1.500e-007  moles
	                                   Mole                     Log
	Species               Moles    Fraction    Molality    Molality

	Sua              1.500e-007       1.000  1.500e-007      -6.824

Sub           
	 1.211e-024  Surface + diffuse layer charge, eq
	 0.000e+000  Surface charge, eq
	 0.000e+000  sigma, C/m**2
	-3.817e-014  psi, V
	 1.486e-012  -F*psi/RT
	 1.000e+000  exp(-F*psi/RT)
	 1.000e+004  specific area, m**2/g
	 2.999e-003  m**2 for  2.999e-007 g

	Water in diffuse layer: 2.999e-012 kg,  0.2% of total DDL-water.

	Total moles in diffuse layer (excluding water), Donnan calculation 

	Element       	     Moles
	Ca            	 4.4912e-022
	Cl            	 4.5014e-019
	H             	 6.0586e-019
	Na            	 4.4946e-019
	O             	 3.0302e-019

Sub           
	 2.999e-010  moles
	                                   Mole                     Log
	Species               Moles    Fraction    Molality    Molality

	Sub              2.999e-010       1.000  2.999e-010      -9.523

----------------------------------User print-----------------------------------

Adapting surface in            6 

------------------------------Surface composition------------------------------

Hfo           
	 3.986e-022  Surface + diffuse layer charge, eq
	 7.981e-018  Surface charge, eq
	 9.724e-005  sigma, C/m**2
	 6.566e-002  psi, V
	-2.556e+000  -F*psi/RT
	 7.764e-002  exp(-F*psi/RT)
	 6.000e+002  specific area, m**2/g
	 7.920e-009  m**2 for  1.320e-011 g

	Water in diffuse layer: 7.920e-018 kg,  0.0% of total DDL-water.

	Total moles in diffuse layer (excluding water), Donnan calculation 

	Element       	     Moles
	Ca            	 5.6219e-040
	Cl            	 4.7871e-018
	H             	 3.1936e-018
	Na            	 3.7318e-031
	O             	 3.1936e-018

Hfo_s         
	 3.750e-015  moles
	                                   Mole                     Log
	Species               Moles    Fraction    Molality    Molality

	Hfo_sOH          2.884e-015       0.769  2.884e-015     -14.540
	Hfo_sOH2+        4.366e-016       0.116  4.366e-016     -15.360
	Hfo_sO-          4.364e-016       0.116  4.364e-016     -15.360
	Hfo_sOHCa+2      2.429e-022       0.000  2.429e-022     -21.615

Hfo_w         
	 1.462e-013  moles
	                                   Mole                     Log
	Species               Moles    Fraction    Molality    Molality

	Hfo_wOH          1.123e-013       0.768  1.123e-013     -12.950
	Hfo_wOH2+        1.700e-014       0.116  1.700e-014     -13.770
	Hfo_wO-          1.699e-014       0.116  1.699e-014     -13.770
	Hfo_wOCa+        1.843e-023       0.000  1.843e-023     -22.734

Sua           
	 2.712e-031  Surface + diffuse layer charge, eq
	 0.000e+000  Surface charge, eq
	 0.000e+000  sigma, C/m**2
	-1.387e-023  psi, V
	 5.400e-022  -F*psi/RT
	 1.000e+000  exp(-F*psi/RT)
	 1.000e+004  specific area, m**2/g
	 1.500e+000  m**2 for  1.500e-004 g

	Water in diffuse layer: 1.500e-009 kg, 100.0% of total DDL-water.

	Total moles in diffuse layer (excluding water), Donnan calculation 

	Element       	     Moles
	Ca            	 2.2464e-019
	Cl            	 2.2515e-016
	H             	 3.0305e-016
	Na            	 2.2481e-016
	O             	 1.5157e-016

Sua           
	 1.500e-007  moles
	                                   Mole                     Log
	Species               Moles    Fraction    Molality    Molality

	Sua              1.500e-007       1.000  1.500e-007      -6.824

Sub           
	 2.116e-037  Surface + diffuse layer charge, eq
	 0.000e+000  Surface charge, eq
	 0.000e+000  sigma, C/m**2
	-1.125e-023  psi, V
	 4.380e-022  -F*psi/RT
	 1.000e+000  exp(-F*psi/RT)
	 1.000e+004  specific area, m**2/g
	 1.500e-006  m**2 for  1.500e-010 g

	Water in diffuse layer: 1.500e-015 kg,  0.0% of total DDL-water.

	Total moles in diffuse layer (excluding water), Donnan calculation 

	Element       	     Moles
	Ca            	 2.2464e-025
	Cl            	 2.2515e-022
	H             	 3.0305e-022
	Na            	 2.2481e-022
	O             	 1.5157e-022

Sub           
	 1.500e-013  moles
	                                   Mole                     Log
	Species               Moles    Fraction    Molality    Molality

	Sub              1.500e-013       1.000  1.500e-013     -12.824

----------------------------------User print-----------------------------------

Adapting surface in            3 

----------------------------------User print-----------------------------------

Adapting surface in            7 

----------------------------------User print-----------------------------------

Adapting surface in            1 

------------------------------Surface composition------------------------------

Hfo           
	-2.178e-012  Surface + diffuse layer charge, eq
	 3.258e-006  Surface charge, eq
	 5.958e-003  sigma, C/m**2
	 7.065e-002  psi, V
	-2.750e+000  -F*psi/RT
	 6.392e-002  exp(-F*psi/RT)
	 6.000e+002  specific area, m**2/g
	 5.277e+001  m**2 for  8.795e-002 g

	Water in diffuse layer: 5.277e-008 kg,  0.3% of total DDL-water.

	Total moles in diffuse layer (excluding water), Donnan calculation 

	Element       	     Moles
	Ca            	 6.5643e-024
	Cl            	 3.2581e-006
	H             	 3.6445e-010
	Na            	 4.8273e-016
	O             	 3.6445e-010

Hfo_s         
	 2.499e-005  moles
	                                   Mole                     Log
	Species               Moles    Fraction    Molality    Molality

	Hfo_sOH          1.918e-005       0.767  1.918e-005      -4.717
	Hfo_sOH2+        2.943e-006       0.118  2.943e-006      -5.531
	Hfo_sO-          2.862e-006       0.115  2.862e-006      -5.543
	Hfo_sOHCa+2      5.535e-009       0.000  5.535e-009      -8.257

Hfo_w         
	 9.744e-004  moles
	                                   Mole                     Log
	Species               Moles    Fraction    Molality    Molality

	Hfo_wOH          7.480e-004       0.768  7.480e-004      -3.126
	Hfo_wOH2+        1.148e-004       0.118  1.148e-004      -3.940
	Hfo_wO-          1.116e-004       0.115  1.116e-004      -3.952
	Hfo_wOCa+        4.152e-010       0.000  4.152e-010      -9.382

Sua           
	 1.259e-015  Surface + diffuse layer charge, eq
	 0.000e+000  Surface charge, eq
	 0.000e+000  sigma, C/m**2
	-3.884e-013  psi, V
	 1.512e-011  -F*psi/RT
	 1.000e+000  exp(-F*psi/RT)
	 1.000e+004  specific area, m**2/g
	 4.999e+003  m**2 for  4.999e-001 g

	Water in diffuse layer: 4.999e-006 kg, 33.2% of total DDL-water.

	Total moles in diffuse layer (excluding water), Donnan calculation 

	Element       	     Moles
	Ca            	 3.7752e-012
	Cl            	 3.7529e-009
	H             	 1.0626e-012
	Na            	 3.7451e-009
	O             	 4.2457e-013

Sua           
	 4.999e-004  moles
	                                   Mole                     Log
	Species               Moles    Fraction    Molality    Molality

	Sua              4.999e-004       1.000  4.999e-004      -3.301

Sub           
	 2.519e-015  Surface + diffuse layer charge, eq
	 0.000e+000  Surface charge, eq
	 0.000e+000  sigma, C/m**2
	-3.884e-013  psi, V
	 1.512e-011  -F*psi/RT
	 1.000e+000  exp(-F*psi/RT)
	 1.000e+004  specific area, m**2/g
	 1.000e+004  m**2 for  1.000e+000 g

	Water in diffuse layer: 1.000e-005 kg, 66.3% of total DDL-water.

	Total moles in diffuse layer (excluding water), Donnan calculation 

	Element       	     Moles
	Ca            	 7.5512e-012
	Cl            	 7.5066e-009
	H             	 2.1254e-012
	Na            	 7.4911e-009
	O             	 8.4923e-013

Sub           
	 1.000e-003  moles
	                                   Mole                     Log
	Species               Moles    Fraction    Molality    Molality

	Sub              1.000e-003       1.000  1.000e-003      -3.000

Sorbedhfo     
	-1.089e-012  Surface + diffuse layer charge, eq
	 1.629e-006  Surface charge, eq
	 5.958e-003  sigma, C/m**2
	 7.065e-002  psi, V
	-2.750e+000  -F*psi/RT
	 6.392e-002  exp(-F*psi/RT)
	 6.000e+002  specific area, m**2/g
	 2.639e+001  m**2 for  4.398e-002 g

	Water in diffuse layer: 2.639e-008 kg,  0.2% of total DDL-water.

	Total moles in diffuse layer (excluding water), Donnan calculation 

	Element       	     Moles
	Ca            	 3.2824e-024
	Cl            	 1.6292e-006
	H             	 1.8224e-010
	Na            	 2.4138e-016
	O             	 1.8224e-010

Sorbedhfo_s   
	 1.249e-005  moles
	                                   Mole                     Log
	Species               Moles    Fraction    Molality    Molality

	Sorbedhfo_sOH    9.588e-006       0.767  9.588e-006      -5.018
	Sorbedhfo_sOH2+  1.472e-006       0.118  1.472e-006      -5.832
	Sorbedhfo_sO-    1.431e-006       0.115  1.431e-006      -5.844
	Sorbedhfo_sOHCa+2  2.768e-009       0.000  2.768e-009      -8.558

Sorbedhfo_w   
	 4.873e-004  moles
	                                   Mole                     Log
	Species               Moles    Fraction    Molality    Molality

	Sorbedhfo_wOH    3.740e-004       0.768  3.740e-004      -3.427
	Sorbedhfo_wOH2+  5.741e-005       0.118  5.741e-005      -4.241
	Sorbedhfo_wO-    5.582e-005       0.115  5.582e-005      -4.253
	Sorbedhfo_wOCa+  2.076e-010       0.000  2.076e-010      -9.683

----------------------------------User print-----------------------------------

Adapting surface in            5 

------------------------------Surface composition------------------------------

Sorbedhfo     
	-7.638e-016  Surface + diffuse layer charge, eq
	 7.198e-010  Surface charge, eq
	 5.262e-003  sigma, C/m**2
	 6.512e-002  psi, V
	-2.535e+000  -F*psi/RT
	 7.928e-002  exp(-F*psi/RT)
	 6.000e+002  specific area, m**2/g
	 1.320e-002  m**2 for  2.200e-005 g

	Water in diffuse layer: 1.320e-011 kg,  0.0% of total DDL-water.

	Total moles in diffuse layer (excluding water), Donnan calculation 

	Element       	     Moles
	Ca            	 2.0989e-027
	Cl            	 7.1969e-010
	H             	 9.9898e-014
	Na            	 1.3677e-019
	O             	 9.9898e-014

Sorbedhfo_s   
	 6.250e-009  moles
	                                   Mole                     Log
	Species               Moles    Fraction    Molality    Molality

	Sorbedhfo_sOH    4.796e-009       0.767  4.796e-009      -8.319
	Sorbedhfo_sOH2+  7.349e-010       0.118  7.349e-010      -9.134
	Sorbedhfo_sO-    7.170e-010       0.115  7.170e-010      -9.144
	Sorbedhfo_sOHCa+2  2.097e-012       0.000  2.097e-012     -11.678

Sorbedhfo_w   
	 2.437e-007  moles
	                                   Mole                     Log
	Species               Moles    Fraction    Molality    Molality

	Sorbedhfo_wOH    1.871e-007       0.768  1.871e-007      -6.728
	Sorbedhfo_wOH2+  2.867e-008       0.118  2.867e-008      -7.543
	Sorbedhfo_wO-    2.797e-008       0.115  2.797e-008      -7.553
	Sorbedhfo_wOCa+  1.576e-013       0.000  1.576e-013     -12.802

Sua           
	 7.865e-018  Surface + diffuse layer charge, eq
	 0.000e+000  Surface charge, eq
	 0.000e+000  sigma, C/m**2
	-2.423e-015  psi, V
	 9.431e-014  -F*psi/RT
	 1.000e+000  exp(-F*psi/RT)
	 1.000e+004  specific area, m**2/g
	 4.999e+003  m**2 for  4.999e-001 g

	Water in diffuse layer: 4.999e-006 kg, 50.0% of total DDL-water.

	Total moles in diffuse layer (excluding water), Donnan calculation 

	Element       	     Moles
	Ca            	 3.7273e-012
	Cl            	 3.7521e-009
	H             	 1.0407e-012
	Na            	 3.7447e-009
	O             	 5.2565e-013

Sua           
	 4.999e-004  moles
	                                   Mole                     Log
	Species               Moles    Fraction    Molality    Molality

	Sua              4.999e-004       1.000  4.999e-004      -3.301

Sub           
	 7.872e-018  Surface + diffuse layer charge, eq
	 0.000e+000  Surface charge, eq
	 0.000e+000  sigma, C/m**2
	-2.423e-015  psi, V
	 9.431e-014  -F*psi/RT
	 1.000e+000  exp(-F*psi/RT)
	 1.000e+004  specific area, m**2/g
	 5.003e+003  m**2 for  5.003e-001 g

	Water in diffuse layer: 5.003e-006 kg, 50.0% of total DDL-water.

	Total moles in diffuse layer (excluding water), Donnan calculation 

	Element       	     Moles
	Ca            	 3.7305e-012
	Cl            	 3.7553e-009
	H             	 1.0416e-012
	Na            	 3.7479e-009
	O             	 5.2610e-013

Sub           
	 5.003e-004  moles
	                                   Mole                     Log
	Species               Moles    Fraction    Molality    Molality

	Sub              5.003e-004       1.000  5.003e-004      -3.301

Hfo           
	-2.291e-015  Surface + diffuse layer charge, eq
	 2.159e-009  Surface charge, eq
	 5.262e-003  sigma, C/m**2
	 6.512e-002  psi, V
	-2.535e+000  -F*psi/RT
	 7.928e-002  exp(-F*psi/RT)
	 6.000e+002  specific area, m**2/g
	 3.959e-002  m**2 for  6.598e-005 g

	Water in diffuse layer: 3.959e-011 kg,  0.0% of total DDL-water.

	Total moles in diffuse layer (excluding water), Donnan calculation 

	Element       	     Moles
	Ca            	 6.2952e-027
	Cl            	 2.1586e-009
	H             	 2.9963e-013
	Na            	 4.1021e-019
	O             	 2.9963e-013

Hfo_s         
	 1.875e-008  moles
	                                   Mole                     Log
	Species               Moles    Fraction    Molality    Molality

	Hfo_sOH          1.438e-008       0.767  1.438e-008      -7.842
	Hfo_sOH2+        2.204e-009       0.118  2.204e-009      -8.657
	Hfo_sO-          2.150e-009       0.115  2.150e-009      -8.667
	Hfo_sOHCa+2      6.291e-012       0.000  6.291e-012     -11.201

Hfo_w         
	 7.311e-007  moles
	                                   Mole                     Log
	Species               Moles    Fraction    Molality    Molality

	Hfo_wOH          5.612e-007       0.768  5.612e-007      -6.251
	Hfo_wOH2+        8.599e-008       0.118  8.599e-008      -7.066
	Hfo_wO-          8.390e-008       0.115  8.390e-008      -7.076
	Hfo_wOCa+        4.727e-013       0.000  4.727e-013     -12.325

----------------------------------User print-----------------------------------

Adapting surface in            2 

------------------------------Surface composition------------------------------

Sua           
	 1.706e-021  Surface + diffuse layer charge, eq
	 0.000e+000  Surface charge, eq
	 0.000e+000  sigma, C/m**2
	-6.033e-015  psi, V
	 2.348e-013  -F*psi/RT
	 1.000e+000  exp(-F*psi/RT)
	 1.000e+004  specific area, m**2/g
	 7.508e-001  m**2 for  7.508e-005 g

	Water in diffuse layer: 7.508e-010 kg,  0.0% of total DDL-water.

	Total moles in diffuse layer (excluding water), Donnan calculation 

	Element       	     Moles
	Ca            	 1.9164e-016
	Cl            	 1.8809e-013
	H             	 2.3107e-016
	Na            	 1.8754e-013
	O             	 2.9833e-017

Sua           
	 7.508e-008  moles
	                                   Mole                     Log
	Species               Moles    Fraction    Molality    Molality

	Sua              7.508e-008       1.000  7.508e-008      -7.124

Sub           
	 3.408e-017  Surface + diffuse layer charge, eq
	 0.000e+000  Surface charge, eq
	 0.000e+000  sigma, C/m**2
	-6.033e-015  psi, V
	 2.348e-013  -F*psi/RT
	 1.000e+000  exp(-F*psi/RT)
	 1.000e+004  specific area, m**2/g
	 1.499e+004  m**2 for  1.499e+000 g

	Water in diffuse layer: 1.499e-005 kg, 99.8% of total DDL-water.

	Total moles in diffuse layer (excluding water), Donnan calculation 

	Element       	     Moles
	Ca            	 3.8270e-012
	Cl            	 3.7562e-009
	H             	 4.6145e-012
	Na            	 3.7451e-009
	O             	 5.9576e-013

Sub           
	 1.499e-003  moles
	                                   Mole                     Log
	Species               Moles    Fraction    Molality    Molality

	Sub              1.499e-003       1.000  1.499e-003      -2.824

Hfo           
	 3.185e-014  Surface + diffuse layer charge, eq
	 1.428e-006  Surface charge, eq
	 5.223e-003  sigma, C/m**2
	 9.024e-002  psi, V
	-3.512e+000  -F*psi/RT
	 2.982e-002  exp(-F*psi/RT)
	 6.000e+002  specific area, m**2/g
	 2.638e+001  m**2 for  4.396e-002 g

	Water in diffuse layer: 2.638e-008 kg,  0.2% of total DDL-water.

	Total moles in diffuse layer (excluding water), Donnan calculation 

	Element       	     Moles
	Ca            	 1.6434e-025
	Cl            	 1.4275e-006
	H             	 2.2135e-010
	Na            	 3.0665e-017
	O             	 2.2135e-010

Hfo_s         
	 1.249e-005  moles
	                                   Mole                     Log
	Species               Moles    Fraction    Molality    Molality

	Hfo_sOH          9.587e-006       0.768  9.587e-006      -5.018
	Hfo_sOH2+        1.469e-006       0.118  1.469e-006      -5.833
	Hfo_sO-          1.433e-006       0.115  1.433e-006      -5.844
	Hfo_sOHCa+2      2.047e-010       0.000  2.047e-010      -9.689

Hfo_w         
	 4.871e-004  moles
	                                   Mole                     Log
	Species               Moles    Fraction    Molality    Molality

	Hfo_wOH          3.739e-004       0.768  3.739e-004      -3.427
	Hfo_wOH2+        5.729e-005       0.118  5.729e-005      -4.242
	Hfo_wO-          5.590e-005       0.115  5.590e-005      -4.253
	Hfo_wOCa+        1.538e-011       0.000  1.538e-011     -10.813

Sorbedhfo     
	 9.557e-021  Surface + diffuse layer charge, eq
	 4.285e-013  Surface charge, eq
	 5.223e-003  sigma, C/m**2
	 9.024e-002  psi, V
	-3.512e+000  -F*psi/RT
	 2.982e-002  exp(-F*psi/RT)
	 6.000e+002  specific area, m**2/g
	 7.916e-006  m**2 for  1.319e-008 g

	Water in diffuse layer: 7.916e-015 kg,  0.0% of total DDL-water.

	Total moles in diffuse layer (excluding water), Donnan calculation 

	Element       	     Moles
	Ca            	 4.9319e-032
	Cl            	 4.2840e-013
	H             	 6.6428e-017
	Na            	 9.2028e-024
	O             	 6.6428e-017

Sorbedhfo_s   
	 3.748e-012  moles
	                                   Mole                     Log
	Species               Moles    Fraction    Molality    Molality

	Sorbedhfo_sOH    2.877e-012       0.768  2.877e-012     -11.541
	Sorbedhfo_sOH2+  4.409e-013       0.118  4.409e-013     -12.356
	Sorbedhfo_sO-    4.301e-013       0.115  4.301e-013     -12.366
	Sorbedhfo_sOHCa+2  6.145e-017       0.000  6.145e-017     -16.212

Sorbedhfo_w   
	 1.462e-010  moles
	                                   Mole                     Log
	Species               Moles    Fraction    Molality    Molality

	Sorbedhfo_wOH    1.122e-010       0.768  1.122e-010      -9.950
	Sorbedhfo_wOH2+  1.719e-011       0.118  1.719e-011     -10.765
	Sorbedhfo_wO-    1.678e-011       0.115  1.678e-011     -10.775
	Sorbedhfo_wOCa+  4.616e-018       0.000  4.616e-018     -17.336

----------------------------------User print-----------------------------------

Adapting surface in            6 

------------------------------Surface composition------------------------------

Sorbedhfo     
	-7.058e-023  Surface + diffuse layer charge, eq
	 1.473e-016  Surface charge, eq
	 3.590e-003  sigma, C/m**2
	 7.258e-002  psi, V
	-2.825e+000  -F*psi/RT
	 5.930e-002  exp(-F*psi/RT)
	 6.000e+002  specific area, m**2/g
	 3.960e-009  m**2 for  6.600e-012 g

	Water in diffuse layer: 3.960e-018 kg,  0.0% of total DDL-water.

	Total moles in diffuse layer (excluding water), Donnan calculation 

	Element       	     Moles
	Ca            	 5.4312e-035
	Cl            	 1.4728e-016
	H             	 4.5442e-020
	Na            	 6.7055e-027
	O             	 4.5442e-020

Sorbedhfo_s   
	 1.879e-015  moles
	                                   Mole                     Log
	Species               Moles    Fraction    Molality    Molality

	Sorbedhfo_sOH    1.442e-015       0.768  1.442e-015     -14.841
	Sorbedhfo_sOH2+  2.201e-016       0.117  2.201e-016     -15.657
	Sorbedhfo_sO-    2.164e-016       0.115  2.164e-016     -15.665
	Sorbedhfo_sOHCa+2  1.204e-019       0.000  1.204e-019     -18.919

Sorbedhfo_w   
	 7.312e-014  moles
	                                   Mole                     Log
	Species               Moles    Fraction    Molality    Molality

	Sorbedhfo_wOH    5.613e-014       0.768  5.613e-014     -13.251
	Sorbedhfo_wOH2+  8.568e-015       0.117  8.568e-015     -14.067
	Sorbedhfo_wO-    8.424e-015       0.115  8.424e-015     -14.074
	Sorbedhfo_wOCa+  9.062e-021       0.000  9.062e-021     -20.043

Sua           
	 2.789e-021  Surface + diffuse layer charge, eq
	 0.000e+000  Surface charge, eq
	 0.000e+000  sigma, C/m**2
	-9.911e-015  psi, V
	 3.858e-013  -F*psi/RT
	 1.000e+000  exp(-F*psi/RT)
	 1.000e+004  specific area, m**2/g
	 7.507e-001  m**2 for  7.507e-005 g

	Water in diffuse layer: 7.507e-010 kg, 33.2% of total DDL-water.

	Total moles in diffuse layer (excluding water), Donnan calculation 

	Element       	     Moles
	Ca            	 1.9099e-016
	Cl            	 1.8793e-013
	H             	 1.6023e-016
	Na            	 1.8750e-013
	O             	 5.8675e-017

Sua           
	 7.507e-008  moles
	                                   Mole                     Log
	Species               Moles    Fraction    Molality    Molality

	Sua              7.507e-008       1.000  7.507e-008      -7.125

Sub           
	 5.573e-021  Surface + diffuse layer charge, eq
	 0.000e+000  Surface charge, eq
	 0.000e+000  sigma, C/m**2
	-9.911e-015  psi, V
	 3.858e-013  -F*psi/RT
	 1.000e+000  exp(-F*psi/RT)
	 1.000e+004  specific area, m**2/g
	 1.500e+000  m**2 for  1.500e-004 g

	Water in diffuse layer: 1.500e-009 kg, 66.3% of total DDL-water.

	Total moles in diffuse layer (excluding water), Donnan calculation 

	Element       	     Moles
	Ca            	 3.8159e-016
	Cl            	 3.7546e-013
	H             	 3.2013e-016
	Na            	 3.7462e-013
	O             	 1.1723e-016

Sub           
	 1.500e-007  moles
	                                   Mole                     Log
	Species               Moles    Fraction    Molality    Molality

	Sub              1.500e-007       1.000  1.500e-007      -6.824

Hfo           
	-2.352e-016  Surface + diffuse layer charge, eq
	 4.909e-010  Surface charge, eq
	 3.590e-003  sigma, C/m**2
	 7.258e-002  psi, V
	-2.825e+000  -F*psi/RT
	 5.930e-002  exp(-F*psi/RT)
	 6.000e+002  specific area, m**2/g
	 1.319e-002  m**2 for  2.199e-005 g

	Water in diffuse layer: 1.319e-011 kg,  0.6% of total DDL-water.

	Total moles in diffuse layer (excluding water), Donnan calculation 

	Element       	     Moles
	Ca            	 1.8098e-028
	Cl            	 4.9076e-010
	H             	 1.5142e-013
	Na            	 2.2344e-020
	O             	 1.5142e-013

Hfo_s         
	 6.248e-009  moles
	                                   Mole                     Log
	Species               Moles    Fraction    Molality    Molality

	Hfo_sOH          4.795e-009       0.768  4.795e-009      -8.319
	Hfo_sOH2+        7.320e-010       0.117  7.320e-010      -9.136
	Hfo_sO-          7.197e-010       0.115  7.197e-010      -9.143
	Hfo_sOHCa+2      4.004e-013       0.000  4.004e-013     -12.397

Hfo_w         
	 2.437e-007  moles
	                                   Mole                     Log
	Species               Moles    Fraction    Molality    Molality

	Hfo_wOH          1.870e-007       0.768  1.870e-007      -6.728
	Hfo_wOH2+        2.855e-008       0.117  2.855e-008      -7.544
	Hfo_wO-          2.807e-008       0.115  2.807e-008      -7.552
	Hfo_wOCa+        3.020e-014       0.000  3.020e-014     -13.520

----------------------------------User print-----------------------------------

Adapting surface in            3 

------------------------------Surface composition------------------------------

Sua           
	 2.623e-028  Surface + diffuse layer charge, eq
	 0.000e+000  Surface charge, eq
	 0.000e+000  sigma, C/m**2
	-1.480e-012  psi, V
	 5.761e-011  -F*psi/RT
	 1.000e+000  exp(-F*psi/RT)
	 1.000e+004  specific area, m**2/g
	 1.500e-008  m**2 for  1.500e-012 g

	Water in diffuse layer: 1.500e-017 kg,  0.0% of total DDL-water.

	Total moles in diffuse layer (excluding water), Donnan calculation 

	Element       	     Moles
	Ca            	 2.2679e-027
	Cl            	 2.2510e-024
	H             	 3.0302e-024
	Na            	 2.2474e-024
	O             	 1.5154e-024

Sua           
	 1.500e-015  moles
	                                   Mole                     Log
	Species               Moles    Fraction    Molality    Molality

	Sua              1.500e-015       1.000  1.500e-015     -14.824

Sub           
	 2.629e-020  Surface + diffuse layer charge, eq
	 0.000e+000  Surface charge, eq
	 0.000e+000  sigma, C/m**2
	-1.480e-012  psi, V
	 5.761e-011  -F*psi/RT
	 1.000e+000  exp(-F*psi/RT)
	 1.000e+004  specific area, m**2/g
	 1.503e+000  m**2 for  1.503e-004 g

	Water in diffuse layer: 1.503e-009 kg, 100.0% of total DDL-water.

	Total moles in diffuse layer (excluding water), Donnan calculation 

	Element       	     Moles
	Ca            	 2.2730e-019
	Cl            	 2.2561e-016
	H             	 3.0370e-016
	Na            	 2.2525e-016
	O             	 1.5188e-016

Sub           
	 1.503e-007  moles
	                                   Mole                     Log
	Species               Moles    Fraction    Molality    Molality

	Sub              1.503e-007       1.000  1.503e-007      -6.823

Hfo           
	 6.276e-020  Surface + diffuse layer charge, eq
	 1.595e-014  Surface charge, eq
	 9.724e-005  sigma, C/m**2
	 6.566e-002  psi, V
	-2.556e+000  -F*psi/RT
	 7.764e-002  exp(-F*psi/RT)
	 6.000e+002  specific area, m**2/g
	 1.582e-005  m**2 for  2.637e-008 g

	Water in diffuse layer: 1.582e-014 kg,  0.0% of total DDL-water.

	Total moles in diffuse layer (excluding water), Donnan calculation 

	Element       	     Moles
	Ca            	 1.1340e-036
	Cl            	 9.5655e-015
	H             	 6.3811e-015
	Na            	 7.4547e-028
	O             	 6.3811e-015

Hfo_s         
	 7.493e-012  moles
	                                   Mole                     Log
	Species               Moles    Fraction    Molality    Molality

	Hfo_sOH          5.751e-012       0.768  5.751e-012     -11.240
	Hfo_sOH2+        8.707e-013       0.116  8.707e-013     -12.060
	Hfo_sO-          8.703e-013       0.116  8.703e-013     -12.060
	Hfo_sOHCa+2      4.890e-019       0.000  4.890e-019     -18.311

Hfo_w         
	 2.922e-010  moles
	                                   Mole                     Log
	Species               Moles    Fraction    Molality    Molality

	Hfo_wOH          2.243e-010       0.768  2.243e-010      -9.649
	Hfo_wOH2+        3.396e-011       0.116  3.396e-011     -10.469
	Hfo_wO-          3.394e-011       0.116  3.394e-011     -10.469
	Hfo_wOCa+        3.718e-020       0.000  3.718e-020     -19.430

----------------------------------User print-----------------------------------

Adapting surface in            7 

------------------------------Surface composition------------------------------

Sua           
	 9.184e-040  Surface + diffuse layer charge, eq
	 0.000e+000  Surface charge, eq
	 0.000e+000  sigma, C/m**2
	-5.515e-024  psi, V
	 2.147e-022  -F*psi/RT
	 1.000e+000  exp(-F*psi/RT)
	 1.000e+004  specific area, m**2/g
	 1.500e-008  m**2 for  1.500e-012 g

	Water in diffuse layer: 1.500e-017 kg, 65.5% of total DDL-water.

	Total moles in diffuse layer (excluding water), Donnan calculation 

	Element       	     Moles
	Ca            	 2.2673e-027
	Cl            	 2.2507e-024
	H             	 3.0298e-024
	Na            	 2.2470e-024
	O             	 1.5152e-024

Sua           
	 1.500e-015  moles
	                                   Mole                     Log
	Species               Moles    Fraction    Molality    Molality

	Sua              1.500e-015       1.000  1.500e-015     -14.824

Sub           
	-1.173e-022  Surface + diffuse layer charge, eq
	 0.000e+000  Surface charge, eq
	undefined  sigma, C/m**2
	 4.202e-014  psi, V
	-1.636e-012  -F*psi/RT
	 1.000e+000  exp(-F*psi/RT)
	 1.000e+004  specific area, m**2/g
	 0.000e+000  m**2 for  0.000e+000 g

	Water in diffuse layer: 0.000e+000 kg,  0.0% of total DDL-water.

	Total moles in diffuse layer (excluding water), Donnan calculation 

	Element       	     Moles
	Ca            	 1.5113e-022
	Cl            	 1.5013e-019
	H             	 2.0205e-019
	Na            	 1.4981e-019
	O             	 1.0107e-019

Sub           
	 1.000e-025  moles
	                                   Mole                     Log
	Species               Moles    Fraction    Molality    Molality

	Sub              1.000e-025       0.000  1.000e-025     -25.000

Hfo           
	 3.977e-022  Surface + diffuse layer charge, eq
	 7.977e-018  Surface charge, eq
	 9.724e-005  sigma, C/m**2
	 6.566e-002  psi, V
	-2.556e+000  -F*psi/RT
	 7.764e-002  exp(-F*psi/RT)
	 6.000e+002  specific area, m**2/g
	 7.916e-009  m**2 for  1.319e-011 g

	Water in diffuse layer: 7.916e-018 kg, 34.5% of total DDL-water.

	Total moles in diffuse layer (excluding water), Donnan calculation 

	Element       	     Moles
	Ca            	 5.6707e-040
	Cl            	 4.7846e-018
	H             	 3.1921e-018
	Na            	 3.7286e-031
	O             	 3.1921e-018

Hfo_s         
	 3.748e-015  moles
	                                   Mole                     Log
	Species               Moles    Fraction    Molality    Molality

	Hfo_sOH          2.883e-015       0.769  2.883e-015     -14.540
	Hfo_sOH2+        4.364e-016       0.116  4.364e-016     -15.360
	Hfo_sO-          4.362e-016       0.116  4.362e-016     -15.360
	Hfo_sOHCa+2      2.451e-022       0.000  2.451e-022     -21.611

Hfo_w         
	 1.462e-013  moles
	                                   Mole                     Log
	Species               Moles    Fraction    Molality    Molality

	Hfo_wOH          1.122e-013       0.768  1.122e-013     -12.950
	Hfo_wOH2+        1.699e-014       0.116  1.699e-014     -13.770
	Hfo_wO-          1.698e-014       0.116  1.698e-014     -13.770
	Hfo_wOCa+        1.859e-023       0.000  1.859e-023     -22.731

----------------------------------User print-----------------------------------

Adapting surface in            1 

------------------------------Surface composition------------------------------

Hfo           
	-3.422e-013  Surface + diffuse layer charge, eq
	 3.288e-006  Surface charge, eq
	 6.013e-003  sigma, C/m**2
	 6.761e-002  psi, V
	-2.631e+000  -F*psi/RT
	 7.197e-002  exp(-F*psi/RT)
	 6.000e+002  specific area, m**2/g
	 5.277e+001  m**2 for  8.796e-002 g

	Water in diffuse layer: 5.277e-008 kg,  0.3% of total DDL-water.

	Total moles in diffuse layer (excluding water), Donnan calculation 

	Element       	     Moles
	Ca            	 1.0148e-023
	Cl            	 3.2881e-006
	H             	 3.5575e-010
	Na            	 6.5112e-016
	O             	 3.5575e-010

Hfo_s         
	 2.499e-005  moles
	                                   Mole                     Log
	Species               Moles    Fraction    Molality    Molality

	Hfo_sOH          1.917e-005       0.767  1.917e-005      -4.717
	Hfo_sOH2+        2.943e-006       0.118  2.943e-006      -5.531
	Hfo_sO-          2.862e-006       0.115  2.862e-006      -5.543
	Hfo_sOHCa+2      8.133e-009       0.000  8.133e-009      -8.090

Hfo_w         
	 9.745e-004  moles
	                                   Mole                     Log
	Species               Moles    Fraction    Molality    Molality

	Hfo_wOH          7.480e-004       0.768  7.480e-004      -3.126
	Hfo_wOH2+        1.148e-004       0.118  1.148e-004      -3.940
	Hfo_wO-          1.116e-004       0.115  1.116e-004      -3.952
	Hfo_wOCa+        6.100e-010       0.000  6.100e-010      -9.215

Sua           
	 5.571e-017  Surface + diffuse layer charge, eq
	 0.000e+000  Surface charge, eq
	 0.000e+000  sigma, C/m**2
	-1.589e-014  psi, V
	 6.186e-013  -F*psi/RT
	 1.000e+000  exp(-F*psi/RT)
	 1.000e+004  specific area, m**2/g
	 4.999e+003  m**2 for  4.999e-001 g

	Water in diffuse layer: 4.999e-006 kg, 33.1% of total DDL-water.

	Total moles in diffuse layer (excluding water), Donnan calculation 

	Element       	     Moles
	Ca            	 4.3761e-012
	Cl            	 4.3778e-009
	H             	 1.0468e-012
	Na            	 4.3689e-009
	O             	 4.7841e-013

Sua           
	 4.999e-004  moles
	                                   Mole                     Log
	Species               Moles    Fraction    Molality    Molality

	Sua              4.999e-004       1.000  4.999e-004      -3.301

Sub           
	 1.115e-016  Surface + diffuse layer charge, eq
	 0.000e+000  Surface charge, eq
	 0.000e+000  sigma, C/m**2
	-1.589e-014  psi, V
	 6.186e-013  -F*psi/RT
	 1.000e+000  exp(-F*psi/RT)
	 1.000e+004  specific area, m**2/g
	 1.000e+004  m**2 for  1.000e+000 g

	Water in diffuse layer: 1.000e-005 kg, 66.2% of total DDL-water.

	Total moles in diffuse layer (excluding water), Donnan calculation 

	Element       	     Moles
	Ca            	 8.7544e-012
	Cl            	 8.7578e-009
	H             	 2.0941e-012
	Na            	 8.7401e-009
	O             	 9.5706e-013

Sub           
	 1.000e-003  moles
	                                   Mole                     Log
	Species               Moles    Fraction    Molality    Molality

	Sub              1.000e-003       1.000  1.000e-003      -3.000

Sorbedhfo     
	-3.422e-013  Surface + diffuse layer charge, eq
	 3.288e-006  Surface charge, eq
	 6.013e-003  sigma, C/m**2
	 6.761e-002  psi, V
	-2.631e+000  -F*psi/RT
	 7.197e-002  exp(-F*psi/RT)
	 6.000e+002  specific area, m**2/g
	 5.277e+001  m**2 for  8.795e-002 g

	Water in diffuse layer: 5.277e-008 kg,  0.3% of total DDL-water.

	Total moles in diffuse layer (excluding water), Donnan calculation 

	Element       	     Moles
	Ca            	 1.0147e-023
	Cl            	 3.2880e-006
	H             	 3.5573e-010
	Na            	 6.5110e-016
	O             	 3.5573e-010

Sorbedhfo_s   
	 2.499e-005  moles
	                                   Mole                     Log
	Species               Moles    Fraction    Molality    Molality

	Sorbedhfo_sOH    1.917e-005       0.767  1.917e-005      -4.717
	Sorbedhfo_sOH2+  2.943e-006       0.118  2.943e-006      -5.531
	Sorbedhfo_sO-    2.861e-006       0.115  2.861e-006      -5.543
	Sorbedhfo_sOHCa+2  8.133e-009       0.000  8.133e-009      -8.090

Sorbedhfo_w   
	 9.745e-004  moles
	                                   Mole                     Log
	Species               Moles    Fraction    Molality    Molality

	Sorbedhfo_wOH    7.480e-004       0.768  7.480e-004      -3.126
	Sorbedhfo_wOH2+  1.148e-004       0.118  1.148e-004      -3.940
	Sorbedhfo_wO-    1.116e-004       0.115  1.116e-004      -3.952
	Sorbedhfo_wOCa+  6.100e-010       0.000  6.100e-010      -9.215

----------------------------------User print-----------------------------------

Adapting surface in            5 

------------------------------Surface composition------------------------------

Sorbedhfo     
	-1.646e-016  Surface + diffuse layer charge, eq
	 1.937e-009  Surface charge, eq
	 5.666e-003  sigma, C/m**2
	 6.498e-002  psi, V
	-2.529e+000  -F*psi/RT
	 7.971e-002  exp(-F*psi/RT)
	 6.000e+002  specific area, m**2/g
	 3.299e-002  m**2 for  5.499e-005 g

	Water in diffuse layer: 3.299e-011 kg,  0.0% of total DDL-water.

	Total moles in diffuse layer (excluding water), Donnan calculation 

	Element       	     Moles
	Ca            	 7.1194e-027
	Cl            	 1.9370e-009
	H             	 2.3205e-013
	Na            	 4.3209e-019
	O             	 2.3205e-013

Sorbedhfo_s   
	 1.562e-008  moles
	                                   Mole                     Log
	Species               Moles    Fraction    Molality    Molality

	Sorbedhfo_sOH    1.199e-008       0.767  1.199e-008      -7.921
	Sorbedhfo_sOH2+  1.839e-009       0.118  1.839e-009      -8.736
	Sorbedhfo_sO-    1.790e-009       0.115  1.790e-009      -8.747
	Sorbedhfo_sOHCa+2  6.174e-012       0.000  6.174e-012     -11.209

Sorbedhfo_w   
	 6.093e-007  moles
	                                   Mole                     Log
	Species               Moles    Fraction    Molality    Molality

	Sorbedhfo_wOH    4.677e-007       0.768  4.677e-007      -6.330
	Sorbedhfo_wOH2+  7.173e-008       0.118  7.173e-008      -7.144
	Sorbedhfo_wO-    6.985e-008       0.115  6.985e-008      -7.156
	Sorbedhfo_wOCa+  4.635e-013       0.000  4.635e-013     -12.334

Sua           
	 1.425e-018  Surface + diffuse layer charge, eq
	 0.000e+000  Surface charge, eq
	 0.000e+000  sigma, C/m**2
	-4.052e-016  psi, V
	 1.577e-014  -F*psi/RT
	 1.000e+000  exp(-F*psi/RT)
	 1.000e+004  specific area, m**2/g
	 4.998e+003  m**2 for  4.998e-001 g

	Water in diffuse layer: 4.998e-006 kg, 33.3% of total DDL-water.

	Total moles in diffuse layer (excluding water), Donnan calculation 

	Element       	     Moles
	Ca            	 4.3409e-012
	Cl            	 4.3771e-009
	H             	 1.0431e-012
	Na            	 4.3685e-009
	O             	 5.2925e-013

Sua           
	 4.998e-004  moles
	                                   Mole                     Log
	Species               Moles    Fraction    Molality    Molality

	Sua              4.998e-004       1.000  4.998e-004      -3.301

Sub           
	 2.851e-018  Surface + diffuse layer charge, eq
	 0.000e+000  Surface charge, eq
	 0.000e+000  sigma, C/m**2
	-4.052e-016  psi, V
	 1.577e-014  -F*psi/RT
	 1.000e+000  exp(-F*psi/RT)
	 1.000e+004  specific area, m**2/g
	 1.000e+004  m**2 for  1.000e+000 g

	Water in diffuse layer: 1.000e-005 kg, 66.7% of total DDL-water.

	Total moles in diffuse layer (excluding water), Donnan calculation 

	Element       	     Moles
	Ca            	 8.6868e-012
	Cl            	 8.7593e-009
	H             	 2.0873e-012
	Na            	 8.7420e-009
	O             	 1.0591e-012

Sub           
	 1.000e-003  moles
	                                   Mole                     Log
	Species               Moles    Fraction    Molality    Molality

	Sub              1.000e-003       1.000  1.000e-003      -3.000

Hfo           
	-2.303e-016  Surface + diffuse layer charge, eq
	 2.712e-009  Surface charge, eq
	 5.666e-003  sigma, C/m**2
	 6.498e-002  psi, V
	-2.529e+000  -F*psi/RT
	 7.971e-002  exp(-F*psi/RT)
	 6.000e+002  specific area, m**2/g
	 4.618e-002  m**2 for  7.697e-005 g

	Water in diffuse layer: 4.618e-011 kg,  0.0% of total DDL-water.

	Total moles in diffuse layer (excluding water), Donnan calculation 

	Element       	     Moles
	Ca            	 9.9654e-027
	Cl            	 2.7113e-009
	H             	 3.2481e-013
	Na            	 6.0482e-019
	O             	 3.2481e-013

Hfo_s         
	 2.187e-008  moles
	                                   Mole                     Log
	Species               Moles    Fraction    Molality    Molality

	Hfo_sOH          1.678e-008       0.767  1.678e-008      -7.775
	Hfo_sOH2+        2.573e-009       0.118  2.573e-009      -8.589
	Hfo_sO-          2.506e-009       0.115  2.506e-009      -8.601
	Hfo_sOHCa+2      8.642e-012       0.000  8.642e-012     -11.063

Hfo_w         
	 8.528e-007  moles
	                                   Mole                     Log
	Species               Moles    Fraction    Molality    Molality

	Hfo_wOH          6.546e-007       0.768  6.546e-007      -6.184
	Hfo_wOH2+        1.004e-007       0.118  1.004e-007      -6.998
	Hfo_wO-          9.778e-008       0.115  9.778e-008      -7.010
	Hfo_wOCa+        6.487e-013       0.000  6.487e-013     -12.188

----------------------------------User print-----------------------------------

Adapting surface in            2 

------------------------------Surface composition------------------------------

Hfo           
	-7.355e-014  Surface + diffuse layer charge, eq
	 1.532e-006  Surface charge, eq
	 5.608e-003  sigma, C/m**2
	 7.717e-002  psi, V
	-3.004e+000  -F*psi/RT
	 4.960e-002  exp(-F*psi/RT)
	 6.000e+002  specific area, m**2/g
	 2.637e+001  m**2 for  4.395e-002 g

	Water in diffuse layer: 2.637e-008 kg,  0.2% of total DDL-water.

	Total moles in diffuse layer (excluding water), Donnan calculation 

	Element       	     Moles
	Ca            	 1.1158e-024
	Cl            	 1.5322e-006
	H             	 1.9867e-010
	Na            	 1.1399e-016
	O             	 1.9867e-010

Hfo_s         
	 1.249e-005  moles
	                                   Mole                     Log
	Species               Moles    Fraction    Molality    Molality

	Hfo_sOH          9.583e-006       0.768  9.583e-006      -5.018
	Hfo_sOH2+        1.470e-006       0.118  1.470e-006      -5.833
	Hfo_sO-          1.431e-006       0.115  1.431e-006      -5.844
	Hfo_sOHCa+2      1.120e-009       0.000  1.120e-009      -8.951

Hfo_w         
	 4.869e-004  moles
	                                   Mole                     Log
	Species               Moles    Fraction    Molality    Molality

	Hfo_wOH          3.738e-004       0.768  3.738e-004      -3.427
	Hfo_wOH2+        5.732e-005       0.118  5.732e-005      -4.242
	Hfo_wO-          5.583e-005       0.115  5.583e-005      -4.253
	Hfo_wOCa+        8.406e-011       0.000  8.406e-011     -10.075

Sua           
	 4.677e-020  Surface + diffuse layer charge, eq
	 0.000e+000  Surface charge, eq
	 0.000e+000  sigma, C/m**2
	-5.883e-014  psi, V
	 2.290e-012  -F*psi/RT
	 1.000e+000  exp(-F*psi/RT)
	 1.000e+004  specific area, m**2/g
	 1.500e+000  m**2 for  1.500e-004 g

	Water in diffuse layer: 1.500e-009 kg,  0.0% of total DDL-water.

	Total moles in diffuse layer (excluding water), Donnan calculation 

	Element       	     Moles
	Ca            	 7.6051e-016
	Cl            	 7.5083e-013
	H             	 3.4342e-016
	Na            	 7.4916e-013
	O             	 9.8746e-017

Sua           
	 1.500e-007  moles
	                                   Mole                     Log
	Species               Moles    Fraction    Molality    Molality

	Sua              1.500e-007       1.000  1.500e-007      -6.824

Sub           
	 4.677e-016  Surface + diffuse layer charge, eq
	 0.000e+000  Surface charge, eq
	 0.000e+000  sigma, C/m**2
	-5.883e-014  psi, V
	 2.290e-012  -F*psi/RT
	 1.000e+000  exp(-F*psi/RT)
	 1.000e+004  specific area, m**2/g
	 1.500e+004  m**2 for  1.500e+000 g

	Water in diffuse layer: 1.500e-005 kg, 99.7% of total DDL-water.

	Total moles in diffuse layer (excluding water), Donnan calculation 

	Element       	     Moles
	Ca            	 7.6043e-012
	Cl            	 7.5075e-009
	H             	 3.4339e-012
	Na            	 7.4909e-009
	O             	 9.8736e-013

Sub           
	 1.500e-003  moles
	                                   Mole                     Log
	Species               Moles    Fraction    Molality    Molality

	Sub              1.500e-003       1.000  1.500e-003      -2.824

Sorbedhfo     
	-3.679e-014  Surface + diffuse layer charge, eq
	 7.664e-007  Surface charge, eq
	 5.608e-003  sigma, C/m**2
	 7.717e-002  psi, V
	-3.004e+000  -F*psi/RT
	 4.960e-002  exp(-F*psi/RT)
	 6.000e+002  specific area, m**2/g
	 1.319e+001  m**2 for  2.198e-002 g

	Water in diffuse layer: 1.319e-008 kg,  0.1% of total DDL-water.

	Total moles in diffuse layer (excluding water), Donnan calculation 

	Element       	     Moles
	Ca            	 5.5808e-025
	Cl            	 7.6635e-007
	H             	 9.9363e-011
	Na            	 5.7011e-017
	O             	 9.9363e-011

Sorbedhfo_s   
	 6.245e-006  moles
	                                   Mole                     Log
	Species               Moles    Fraction    Molality    Molality

	Sorbedhfo_sOH    4.793e-006       0.768  4.793e-006      -5.319
	Sorbedhfo_sOH2+  7.351e-007       0.118  7.351e-007      -6.134
	Sorbedhfo_sO-    7.160e-007       0.115  7.160e-007      -6.145
	Sorbedhfo_sOHCa+2  5.602e-010       0.000  5.602e-010      -9.252

Sorbedhfo_w   
	 2.435e-004  moles
	                                   Mole                     Log
	Species               Moles    Fraction    Molality    Molality

	Sorbedhfo_wOH    1.869e-004       0.768  1.869e-004      -3.728
	Sorbedhfo_wOH2+  2.867e-005       0.118  2.867e-005      -4.543
	Sorbedhfo_wO-    2.792e-005       0.115  2.792e-005      -4.554
	Sorbedhfo_wOCa+  4.204e-011       0.000  4.204e-011     -10.376

----------------------------------User print-----------------------------------

Adapting surface in            6 

------------------------------Surface composition------------------------------

Sorbedhfo     
	-2.819e-014  Surface + diffuse layer charge, eq
	 3.334e-010  Surface charge, eq
	 4.876e-003  sigma, C/m**2
	 7.076e-002  psi, V
	-2.754e+000  -F*psi/RT
	 6.366e-002  exp(-F*psi/RT)
	 6.000e+002  specific area, m**2/g
	 6.597e-003  m**2 for  1.100e-005 g

	Water in diffuse layer: 6.597e-012 kg,  0.2% of total DDL-water.

	Total moles in diffuse layer (excluding water), Donnan calculation 

	Element       	     Moles
	Ca            	 3.7146e-028
	Cl            	 3.3333e-010
	H             	 5.5465e-014
	Na            	 3.2808e-020
	O             	 5.5465e-014

Sorbedhfo_s   
	 3.124e-009  moles
	                                   Mole                     Log
	Species               Moles    Fraction    Molality    Molality

	Sorbedhfo_sOH    2.398e-009       0.768  2.398e-009      -8.620
	Sorbedhfo_sOH2+  3.671e-010       0.118  3.671e-010      -9.435
	Sorbedhfo_sO-    3.587e-010       0.115  3.587e-010      -9.445
	Sorbedhfo_sOHCa+2  4.568e-013       0.000  4.568e-013     -12.340

Sorbedhfo_w   
	 1.218e-007  moles
	                                   Mole                     Log
	Species               Moles    Fraction    Molality    Molality

	Sorbedhfo_wOH    9.352e-008       0.768  9.352e-008      -7.029
	Sorbedhfo_wOH2+  1.432e-008       0.118  1.432e-008      -7.844
	Sorbedhfo_wO-    1.399e-008       0.115  1.399e-008      -7.854
	Sorbedhfo_wOCa+  3.435e-014       0.000  3.435e-014     -13.464

Sua           
	-5.255e-019  Surface + diffuse layer charge, eq
	 0.000e+000  Surface charge, eq
	 0.000e+000  sigma, C/m**2
	 6.598e-013  psi, V
	-2.568e-011  -F*psi/RT
	 1.000e+000  exp(-F*psi/RT)
	 1.000e+004  specific area, m**2/g
	 1.500e+000  m**2 for  1.500e-004 g

	Water in diffuse layer: 1.500e-009 kg, 39.7% of total DDL-water.

	Total moles in diffuse layer (excluding water), Donnan calculation 

	Element       	     Moles
	Ca            	 7.5559e-016
	Cl            	 7.5063e-013
	H             	 3.1729e-016
	Na            	 7.4905e-013
	O             	 1.2631e-016

Sua           
	 1.500e-007  moles
	                                   Mole                     Log
	Species               Moles    Fraction    Molality    Molality

	Sua              1.500e-007       1.000  1.500e-007      -6.824

Sub           
	-7.886e-019  Surface + diffuse layer charge, eq
	 0.000e+000  Surface charge, eq
	 0.000e+000  sigma, C/m**2
	 6.598e-013  psi, V
	-2.568e-011  -F*psi/RT
	 1.000e+000  exp(-F*psi/RT)
	 1.000e+004  specific area, m**2/g
	 2.251e+000  m**2 for  2.251e-004 g

	Water in diffuse layer: 2.251e-009 kg, 59.6% of total DDL-water.

	Total moles in diffuse layer (excluding water), Donnan calculation 

	Element       	     Moles
	Ca            	 1.1338e-015
	Cl            	 1.1263e-012
	H             	 4.7609e-016
	Na            	 1.1239e-012
	O             	 1.8953e-016

Sub           
	 2.251e-007  moles
	                                   Mole                     Log
	Species               Moles    Fraction    Molality    Molality

	Sub              2.251e-007       1.000  2.251e-007      -6.648

Hfo           
	-8.454e-014  Surface + diffuse layer charge, eq
	 9.997e-010  Surface charge, eq
	 4.876e-003  sigma, C/m**2
	 7.076e-002  psi, V
	-2.754e+000  -F*psi/RT
	 6.366e-002  exp(-F*psi/RT)
	 6.000e+002  specific area, m**2/g
	 1.978e-002  m**2 for  3.297e-005 g

	Water in diffuse layer: 1.978e-011 kg,  0.5% of total DDL-water.

	Total moles in diffuse layer (excluding water), Donnan calculation 

	Element       	     Moles
	Ca            	 1.1140e-027
	Cl            	 9.9964e-010
	H             	 1.6634e-013
	Na            	 9.8389e-020
	O             	 1.6634e-013

Hfo_s         
	 9.368e-009  moles
	                                   Mole                     Log
	Species               Moles    Fraction    Molality    Molality

	Hfo_sOH          7.190e-009       0.768  7.190e-009      -8.143
	Hfo_sOH2+        1.101e-009       0.118  1.101e-009      -8.958
	Hfo_sO-          1.076e-009       0.115  1.076e-009      -8.968
	Hfo_sOHCa+2      1.370e-012       0.000  1.370e-012     -11.863

Hfo_w         
	 3.653e-007  moles
	                                   Mole                     Log
	Species               Moles    Fraction    Molality    Molality

	Hfo_wOH          2.804e-007       0.768  2.804e-007      -6.552
	Hfo_wOH2+        4.294e-008       0.118  4.294e-008      -7.367
	Hfo_wO-          4.196e-008       0.115  4.196e-008      -7.377
	Hfo_wOCa+        1.030e-013       0.000  1.030e-013     -12.987

----------------------------------User print-----------------------------------

Adapting surface in            3 

------------------------------Surface composition------------------------------

Sua           
	 6.445e-030  Surface + diffuse layer charge, eq
	 0.000e+000  Surface charge, eq
	 0.000e+000  sigma, C/m**2
	-3.135e-015  psi, V
	 1.220e-013  -F*psi/RT
	 1.000e+000  exp(-F*psi/RT)
	 1.000e+004  specific area, m**2/g
	 7.507e-009  m**2 for  7.507e-013 g

	Water in diffuse layer: 7.507e-018 kg,  0.0% of total DDL-water.

	Total moles in diffuse layer (excluding water), Donnan calculation 

	Element       	     Moles
	Ca            	 9.5976e-025
	Cl            	 9.4275e-022
	H             	 2.5914e-024
	Na            	 9.3875e-022
	O             	 2.5540e-025

Sua           
	 7.507e-016  moles
	                                   Mole                     Log
	Species               Moles    Fraction    Molality    Molality

	Sua              7.507e-016       1.000  7.507e-016     -15.125

Sub           
	 1.287e-017  Surface + diffuse layer charge, eq
	 0.000e+000  Surface charge, eq
	 0.000e+000  sigma, C/m**2
	-3.135e-015  psi, V
	 1.220e-013  -F*psi/RT
	 1.000e+000  exp(-F*psi/RT)
	 1.000e+004  specific area, m**2/g
	 1.499e+004  m**2 for  1.499e+000 g

	Water in diffuse layer: 1.499e-005 kg, 99.9% of total DDL-water.

	Total moles in diffuse layer (excluding water), Donnan calculation 

	Element       	     Moles
	Ca            	 1.9170e-012
	Cl            	 1.8830e-009
	H             	 5.1759e-012
	Na            	 1.8750e-009
	O             	 5.1011e-013

Sub           
	 1.499e-003  moles
	                                   Mole                     Log
	Species               Moles    Fraction    Molality    Molality

	Sub              1.499e-003       1.000  1.499e-003      -2.824

Hfo           
	 8.791e-015  Surface + diffuse layer charge, eq
	 5.503e-007  Surface charge, eq
	 4.027e-003  sigma, C/m**2
	 9.439e-002  psi, V
	-3.674e+000  -F*psi/RT
	 2.538e-002  exp(-F*psi/RT)
	 6.000e+002  specific area, m**2/g
	 1.318e+001  m**2 for  2.197e-002 g

	Water in diffuse layer: 1.318e-008 kg,  0.1% of total DDL-water.

	Total moles in diffuse layer (excluding water), Donnan calculation 

	Element       	     Moles
	Ca            	 1.8052e-026
	Cl            	 5.5011e-007
	H             	 1.4502e-010
	Na            	 4.9975e-018
	O             	 1.4502e-010

Hfo_s         
	 6.243e-006  moles
	                                   Mole                     Log
	Species               Moles    Fraction    Molality    Molality

	Hfo_sOH          4.792e-006       0.768  4.792e-006      -5.319
	Hfo_sOH2+        7.322e-007       0.117  7.322e-007      -6.135
	Hfo_sO-          7.184e-007       0.115  7.184e-007      -6.144
	Hfo_sOHCa+2      3.741e-011       0.000  3.741e-011     -10.427

Hfo_w         
	 2.435e-004  moles
	                                   Mole                     Log
	Species               Moles    Fraction    Molality    Molality

	Hfo_wOH          1.869e-004       0.768  1.869e-004      -3.728
	Hfo_wOH2+        2.856e-005       0.117  2.856e-005      -4.544
	Hfo_wO-          2.802e-005       0.115  2.802e-005      -4.553
[...]
	Hfo_sO-          2.684e-009       0.115  2.684e-009      -8.571
	Hfo_sOHCa+2      9.937e-012       0.000  9.937e-012     -11.003

Hfo_w         
	 9.137e-007  moles
	                                   Mole                     Log
	Species               Moles    Fraction    Molality    Molality

	Hfo_wOH          7.013e-007       0.768  7.013e-007      -6.154
	Hfo_wOH2+        1.076e-007       0.118  1.076e-007      -6.968
	Hfo_wO-          1.047e-007       0.115  1.047e-007      -6.980
	Hfo_wOCa+        7.457e-013       0.000  7.457e-013     -12.127

----------------------------------User print-----------------------------------

Adapting surface in            2 

------------------------------Surface composition------------------------------

Hfo           
	-4.214e-014  Surface + diffuse layer charge, eq
	 1.582e-006  Surface charge, eq
	 5.787e-003  sigma, C/m**2
	 7.130e-002  psi, V
	-2.775e+000  -F*psi/RT
	 6.233e-002  exp(-F*psi/RT)
	 6.000e+002  specific area, m**2/g
	 2.637e+001  m**2 for  4.396e-002 g

	Water in diffuse layer: 2.637e-008 kg,  0.2% of total DDL-water.

	Total moles in diffuse layer (excluding water), Donnan calculation 

	Element       	     Moles
	Ca            	 2.6873e-024
	Cl            	 1.5814e-006
	H             	 1.8805e-010
	Na            	 2.0877e-016
	O             	 1.8805e-010

Hfo_s         
	 1.249e-005  moles
	                                   Mole                     Log
	Species               Moles    Fraction    Molality    Molality

	Hfo_sOH          9.584e-006       0.767  9.584e-006      -5.018
	Hfo_sOH2+        1.470e-006       0.118  1.470e-006      -5.833
	Hfo_sO-          1.431e-006       0.115  1.431e-006      -5.844
	Hfo_sOHCa+2      2.412e-009       0.000  2.412e-009      -8.618

Hfo_w         
	 4.870e-004  moles
	                                   Mole                     Log
	Species               Moles    Fraction    Molality    Molality

	Hfo_wOH          3.738e-004       0.768  3.738e-004      -3.427
	Hfo_wOH2+        5.736e-005       0.118  5.736e-005      -4.241
	Hfo_wO-          5.582e-005       0.115  5.582e-005      -4.253
	Hfo_wOCa+        1.809e-010       0.000  1.809e-010      -9.742

Sua           
	 8.790e-021  Surface + diffuse layer charge, eq
	 0.000e+000  Surface charge, eq
	 0.000e+000  sigma, C/m**2
	-9.425e-015  psi, V
	 3.669e-013  -F*psi/RT
	 1.000e+000  exp(-F*psi/RT)
	 1.000e+004  specific area, m**2/g
	 1.500e+000  m**2 for  1.500e-004 g

	Water in diffuse layer: 1.500e-009 kg,  0.0% of total DDL-water.

	Total moles in diffuse layer (excluding water), Donnan calculation 

	Element       	     Moles
	Ca            	 1.0380e-015
	Cl            	 1.0322e-012
	H             	 3.2010e-016
	Na            	 1.0301e-012
	O             	 1.2416e-016

Sua           
	 1.500e-007  moles
	                                   Mole                     Log
	Species               Moles    Fraction    Molality    Molality

	Sua              1.500e-007       1.000  1.500e-007      -6.824

Sub           
	 8.788e-017  Surface + diffuse layer charge, eq
	 0.000e+000  Surface charge, eq
	 0.000e+000  sigma, C/m**2
	-9.425e-015  psi, V
	 3.669e-013  -F*psi/RT
	 1.000e+000  exp(-F*psi/RT)
	 1.000e+004  specific area, m**2/g
	 1.500e+004  m**2 for  1.500e+000 g

	Water in diffuse layer: 1.500e-005 kg, 99.6% of total DDL-water.

	Total moles in diffuse layer (excluding water), Donnan calculation 

	Element       	     Moles
	Ca            	 1.0378e-011
	Cl            	 1.0321e-008
	H             	 3.2005e-012
	Na            	 1.0299e-008
	O             	 1.2415e-012

Sub           
	 1.500e-003  moles
	                                   Mole                     Log
	Species               Moles    Fraction    Molality    Molality

	Sub              1.500e-003       1.000  1.500e-003      -2.824

Sorbedhfo     
	-4.214e-014  Surface + diffuse layer charge, eq
	 1.582e-006  Surface charge, eq
	 5.787e-003  sigma, C/m**2
	 7.130e-002  psi, V
	-2.775e+000  -F*psi/RT
	 6.233e-002  exp(-F*psi/RT)
	 6.000e+002  specific area, m**2/g
	 2.637e+001  m**2 for  4.396e-002 g

	Water in diffuse layer: 2.637e-008 kg,  0.2% of total DDL-water.

	Total moles in diffuse layer (excluding water), Donnan calculation 

	Element       	     Moles
	Ca            	 2.6873e-024
	Cl            	 1.5814e-006
	H             	 1.8805e-010
	Na            	 2.0877e-016
	O             	 1.8805e-010

Sorbedhfo_s   
	 1.249e-005  moles
	                                   Mole                     Log
	Species               Moles    Fraction    Molality    Molality

	Sorbedhfo_sOH    9.584e-006       0.767  9.584e-006      -5.018
	Sorbedhfo_sOH2+  1.470e-006       0.118  1.470e-006      -5.833
	Sorbedhfo_sO-    1.431e-006       0.115  1.431e-006      -5.844
	Sorbedhfo_sOHCa+2  2.412e-009       0.000  2.412e-009      -8.618

Sorbedhfo_w   
	 4.870e-004  moles
	                                   Mole                     Log
	Species               Moles    Fraction    Molality    Molality

	Sorbedhfo_wOH    3.738e-004       0.768  3.738e-004      -3.427
	Sorbedhfo_wOH2+  5.736e-005       0.118  5.736e-005      -4.241
	Sorbedhfo_wO-    5.582e-005       0.115  5.582e-005      -4.253
	Sorbedhfo_wOCa+  1.809e-010       0.000  1.809e-010      -9.742

----------------------------------User print-----------------------------------

Adapting surface in            6 

------------------------------Surface composition------------------------------

Sorbedhfo     
	-8.786e-016  Surface + diffuse layer charge, eq
	 9.294e-010  Surface charge, eq
	 5.439e-003  sigma, C/m**2
	 6.851e-002  psi, V
	-2.667e+000  -F*psi/RT
	 6.948e-002  exp(-F*psi/RT)
	 6.000e+002  specific area, m**2/g
	 1.649e-002  m**2 for  2.748e-005 g

	Water in diffuse layer: 1.649e-011 kg,  0.3% of total DDL-water.

	Total moles in diffuse layer (excluding water), Donnan calculation 

	Element       	     Moles
	Ca            	 1.8991e-027
	Cl            	 9.2930e-010
	H             	 1.2312e-013
	Na            	 1.3890e-019
	O             	 1.2312e-013

Sorbedhfo_s   
	 7.808e-009  moles
	                                   Mole                     Log
	Species               Moles    Fraction    Molality    Molality

	Sorbedhfo_sOH    5.992e-009       0.767  5.992e-009      -8.222
	Sorbedhfo_sOH2+  9.185e-010       0.118  9.185e-010      -9.037
	Sorbedhfo_sO-    8.954e-010       0.115  8.954e-010      -9.048
	Sorbedhfo_sOHCa+2  1.856e-012       0.000  1.856e-012     -11.731

Sorbedhfo_w   
	 3.045e-007  moles
	                                   Mole                     Log
	Species               Moles    Fraction    Molality    Molality

	Sorbedhfo_wOH    2.337e-007       0.768  2.337e-007      -6.631
	Sorbedhfo_wOH2+  3.583e-008       0.118  3.583e-008      -7.446
	Sorbedhfo_wO-    3.493e-008       0.115  3.493e-008      -7.457
	Sorbedhfo_wOCa+  1.394e-013       0.000  1.394e-013     -12.856

Sua           
	 3.227e-021  Surface + diffuse layer charge, eq
	 0.000e+000  Surface charge, eq
	 0.000e+000  sigma, C/m**2
	-3.467e-015  psi, V
	 1.350e-013  -F*psi/RT
	 1.000e+000  exp(-F*psi/RT)
	 1.000e+004  specific area, m**2/g
	 1.500e+000  m**2 for  1.500e-004 g

	Water in diffuse layer: 1.500e-009 kg, 28.4% of total DDL-water.

	Total moles in diffuse layer (excluding water), Donnan calculation 

	Element       	     Moles
	Ca            	 1.0313e-015
	Cl            	 1.0320e-012
	H             	 3.1415e-016
	Na            	 1.0299e-012
	O             	 1.3815e-016

Sua           
	 1.500e-007  moles
	                                   Mole                     Log
	Species               Moles    Fraction    Molality    Molality

	Sua              1.500e-007       1.000  1.500e-007      -6.824

Sub           
	 8.070e-021  Surface + diffuse layer charge, eq
	 0.000e+000  Surface charge, eq
	 0.000e+000  sigma, C/m**2
	-3.467e-015  psi, V
	 1.350e-013  -F*psi/RT
	 1.000e+000  exp(-F*psi/RT)
	 1.000e+004  specific area, m**2/g
	 3.751e+000  m**2 for  3.751e-004 g

	Water in diffuse layer: 3.751e-009 kg, 70.9% of total DDL-water.

	Total moles in diffuse layer (excluding water), Donnan calculation 

	Element       	     Moles
	Ca            	 2.5787e-015
	Cl            	 2.5806e-012
	H             	 7.8553e-016
	Na            	 2.5754e-012
	O             	 3.4545e-016

Sub           
	 3.751e-007  moles
	                                   Mole                     Log
	Species               Moles    Fraction    Molality    Molality

	Sub              3.751e-007       1.000  3.751e-007      -6.426

Hfo           
	-1.230e-015  Surface + diffuse layer charge, eq
	 1.301e-009  Surface charge, eq
	 5.439e-003  sigma, C/m**2
	 6.851e-002  psi, V
	-2.667e+000  -F*psi/RT
	 6.948e-002  exp(-F*psi/RT)
	 6.000e+002  specific area, m**2/g
	 2.308e-002  m**2 for  3.847e-005 g

	Water in diffuse layer: 2.308e-011 kg,  0.4% of total DDL-water.

	Total moles in diffuse layer (excluding water), Donnan calculation 

	Element       	     Moles
	Ca            	 2.6581e-027
	Cl            	 1.3007e-009
	H             	 1.7232e-013
	Na            	 1.9441e-019
	O             	 1.7232e-013

Hfo_s         
	 1.093e-008  moles
	                                   Mole                     Log
	Species               Moles    Fraction    Molality    Molality

	Hfo_sOH          8.387e-009       0.767  8.387e-009      -8.076
	Hfo_sOH2+        1.286e-009       0.118  1.286e-009      -8.891
	Hfo_sO-          1.253e-009       0.115  1.253e-009      -8.902
	Hfo_sOHCa+2      2.598e-012       0.000  2.598e-012     -11.585

Hfo_w         
	 4.262e-007  moles
	                                   Mole                     Log
	Species               Moles    Fraction    Molality    Molality

	Hfo_wOH          3.272e-007       0.768  3.272e-007      -6.485
	Hfo_wOH2+        5.015e-008       0.118  5.015e-008      -7.300
	Hfo_wO-          4.889e-008       0.115  4.889e-008      -7.311
	Hfo_wOCa+        1.951e-013       0.000  1.951e-013     -12.710

----------------------------------User print-----------------------------------

Adapting surface in            3 

------------------------------Surface composition------------------------------

Hfo           
	-8.336e-013  Surface + diffuse layer charge, eq
	 6.770e-007  Surface charge, eq
	 4.957e-003  sigma, C/m**2
	 8.240e-002  psi, V
	-3.207e+000  -F*psi/RT
	 4.047e-002  exp(-F*psi/RT)
	 6.000e+002  specific area, m**2/g
	 1.318e+001  m**2 for  2.196e-002 g

	Water in diffuse layer: 1.318e-008 kg,  0.1% of total DDL-water.

	Total moles in diffuse layer (excluding water), Donnan calculation 

	Element       	     Moles
	Ca            	 1.7802e-025
	Cl            	 6.7688e-007
	H             	 1.1419e-010
	Na            	 2.5225e-017
	O             	 1.1419e-010

Hfo_s         
	 6.240e-006  moles
	                                   Mole                     Log
	Species               Moles    Fraction    Molality    Molality

	Hfo_sOH          4.790e-006       0.768  4.790e-006      -5.320
	Hfo_sOH2+        7.334e-007       0.118  7.334e-007      -6.135
	Hfo_sO-          7.165e-007       0.115  7.165e-007      -6.145
	Hfo_sOHCa+2      2.343e-010       0.000  2.343e-010      -9.630

Hfo_w         
	 2.433e-004  moles
	                                   Mole                     Log
	Species               Moles    Fraction    Molality    Molality

	Hfo_wOH          1.868e-004       0.768  1.868e-004      -3.729
	Hfo_wOH2+        2.860e-005       0.118  2.860e-005      -4.544
	Hfo_wO-          2.795e-005       0.115  2.795e-005      -4.554
	Hfo_wOCa+        1.761e-011       0.000  1.761e-011     -10.754

Sua           
	 6.990e-028  Surface + diffuse layer charge, eq
	 0.000e+000  Surface charge, eq
	 0.000e+000  sigma, C/m**2
	-1.120e-013  psi, V
	 4.359e-012  -F*psi/RT
	 1.000e+000  exp(-F*psi/RT)
	 1.000e+004  specific area, m**2/g
	 1.500e-008  m**2 for  1.500e-012 g

	Water in diffuse layer: 1.500e-017 kg,  0.0% of total DDL-water.

	Total moles in diffuse layer (excluding water), Donnan calculation 

	Element       	     Moles
	Ca            	 4.7682e-024
	Cl            	 4.6951e-021
	H             	 3.7775e-024
	Na            	 4.6834e-021
	O             	 8.0550e-025

Sua           
	 1.500e-015  moles
	                                   Mole                     Log
	Species               Moles    Fraction    Molality    Molality

	Sua              1.500e-015       1.000  1.500e-015     -14.824

Sub           
	 6.992e-016  Surface + diffuse layer charge, eq
	 0.000e+000  Surface charge, eq
	 0.000e+000  sigma, C/m**2
	-1.120e-013  psi, V
	 4.359e-012  -F*psi/RT
	 1.000e+000  exp(-F*psi/RT)
	 1.000e+004  specific area, m**2/g
	 1.500e+004  m**2 for  1.500e+000 g

	Water in diffuse layer: 1.500e-005 kg, 99.9% of total DDL-water.

	Total moles in diffuse layer (excluding water), Donnan calculation 

	Element       	     Moles
	Ca            	 4.7694e-012
	Cl            	 4.6963e-009
	H             	 3.7785e-012
	Na            	 4.6846e-009
	O             	 8.0572e-013

Sub           
	 1.500e-003  moles
	                                   Mole                     Log
	Species               Moles    Fraction    Molality    Molality

	Sub              1.500e-003       1.000  1.500e-003      -2.824

Sorbedhfo     
	-4.170e-013  Surface + diffuse layer charge, eq
	 3.386e-007  Surface charge, eq
	 4.957e-003  sigma, C/m**2
	 8.240e-002  psi, V
	-3.207e+000  -F*psi/RT
	 4.047e-002  exp(-F*psi/RT)
	 6.000e+002  specific area, m**2/g
	 6.592e+000  m**2 for  1.099e-002 g

	Water in diffuse layer: 6.592e-009 kg,  0.0% of total DDL-water.

	Total moles in diffuse layer (excluding water), Donnan calculation 

	Element       	     Moles
	Ca            	 8.9050e-026
	Cl            	 3.3859e-007
	H             	 5.7122e-011
	Na            	 1.2618e-017
	O             	 5.7122e-011

Sorbedhfo_s   
	 3.121e-006  moles
	                                   Mole                     Log
	Species               Moles    Fraction    Molality    Molality

	Sorbedhfo_sOH    2.396e-006       0.768  2.396e-006      -5.621
	Sorbedhfo_sOH2+  3.669e-007       0.118  3.669e-007      -6.435
	Sorbedhfo_sO-    3.584e-007       0.115  3.584e-007      -6.446
	Sorbedhfo_sOHCa+2  1.172e-010       0.000  1.172e-010      -9.931

Sorbedhfo_w   
	 1.217e-004  moles
	                                   Mole                     Log
	Species               Moles    Fraction    Molality    Molality

	Sorbedhfo_wOH    9.344e-005       0.768  9.344e-005      -4.029
	Sorbedhfo_wOH2+  1.431e-005       0.118  1.431e-005      -4.844
	Sorbedhfo_wO-    1.398e-005       0.115  1.398e-005      -4.855
	Sorbedhfo_wOCa+  8.808e-012       0.000  8.808e-012     -11.055

----------------------------------User print-----------------------------------

Adapting surface in            7 

------------------------------Surface composition------------------------------

Sua           
	 3.580e-027  Surface + diffuse layer charge, eq
	 0.000e+000  Surface charge, eq
	 0.000e+000  sigma, C/m**2
	-5.695e-013  psi, V
	 2.217e-011  -F*psi/RT
	 1.000e+000  exp(-F*psi/RT)
	 1.000e+004  specific area, m**2/g
	 1.500e-008  m**2 for  1.500e-012 g

	Water in diffuse layer: 1.500e-017 kg,  0.0% of total DDL-water.

	Total moles in diffuse layer (excluding water), Donnan calculation 

	Element       	     Moles
	Ca            	 4.7557e-024
	Cl            	 4.6935e-021
	H             	 3.3741e-024
	Na            	 4.6827e-021
	O             	 1.0108e-024

Sua           
	 1.500e-015  moles
	                                   Mole                     Log
	Species               Moles    Fraction    Molality    Molality

	Sua              1.500e-015       1.000  1.500e-015     -14.824

Sub           
	 5.372e-027  Surface + diffuse layer charge, eq
	 0.000e+000  Surface charge, eq
	 0.000e+000  sigma, C/m**2
	-5.695e-013  psi, V
	 2.217e-011  -F*psi/RT
	 1.000e+000  exp(-F*psi/RT)
	 1.000e+004  specific area, m**2/g
	 2.250e-008  m**2 for  2.250e-012 g

	Water in diffuse layer: 2.250e-017 kg,  0.0% of total DDL-water.

	Total moles in diffuse layer (excluding water), Donnan calculation 

	Element       	     Moles
	Ca            	 7.1363e-024
	Cl            	 7.0430e-021
	H             	 5.0631e-024
	Na            	 7.0267e-021
	O             	 1.5168e-024

Sub           
	 2.250e-015  moles
	                                   Mole                     Log
	Species               Moles    Fraction    Molality    Molality

	Sub              2.250e-015       1.000  2.250e-015     -14.648

Sorbedhfo     
	-9.345e-015  Surface + diffuse layer charge, eq
	 1.492e-010  Surface charge, eq
	 4.364e-003  sigma, C/m**2
	 7.643e-002  psi, V
	-2.975e+000  -F*psi/RT
	 5.105e-002  exp(-F*psi/RT)
	 6.000e+002  specific area, m**2/g
	 3.298e-003  m**2 for  5.496e-006 g

	Water in diffuse layer: 3.298e-012 kg, 25.0% of total DDL-water.

	Total moles in diffuse layer (excluding water), Donnan calculation 

	Element       	     Moles
	Ca            	 5.8071e-029
	Cl            	 1.4913e-010
	H             	 3.1683e-014
	Na            	 7.1709e-021
	O             	 3.1683e-014

Sorbedhfo_s   
	 1.561e-009  moles
	                                   Mole                     Log
	Species               Moles    Fraction    Molality    Molality

	Sorbedhfo_sOH    1.198e-009       0.768  1.198e-009      -8.921
	Sorbedhfo_sOH2+  1.833e-010       0.117  1.833e-010      -9.737
	Sorbedhfo_sO-    1.795e-010       0.115  1.795e-010      -9.746
	Sorbedhfo_sOHCa+2  9.242e-014       0.000  9.242e-014     -13.034

Sorbedhfo_w   
	 6.089e-008  moles
	                                   Mole                     Log
	Species               Moles    Fraction    Molality    Molality

	Sorbedhfo_wOH    4.674e-008       0.768  4.674e-008      -7.330
	Sorbedhfo_wOH2+  7.148e-009       0.117  7.148e-009      -8.146
	Sorbedhfo_wO-    7.002e-009       0.115  7.002e-009      -8.155
	Sorbedhfo_wOCa+  6.957e-015       0.000  6.957e-015     -14.158

Hfo           
	-2.802e-014  Surface + diffuse layer charge, eq
	 4.472e-010  Surface charge, eq
	 4.364e-003  sigma, C/m**2
	 7.643e-002  psi, V
	-2.975e+000  -F*psi/RT
	 5.105e-002  exp(-F*psi/RT)
	 6.000e+002  specific area, m**2/g
	 9.888e-003  m**2 for  1.648e-005 g

	Water in diffuse layer: 9.888e-012 kg, 75.0% of total DDL-water.

	Total moles in diffuse layer (excluding water), Donnan calculation 

	Element       	     Moles
	Ca            	 1.7413e-028
	Cl            	 4.4718e-010
	H             	 9.5004e-014
	Na            	 2.1503e-020
	O             	 9.5004e-014

Hfo_s         
	 4.682e-009  moles
	                                   Mole                     Log
	Species               Moles    Fraction    Molality    Molality

	Hfo_sOH          3.594e-009       0.768  3.594e-009      -8.444
	Hfo_sOH2+        5.495e-010       0.117  5.495e-010      -9.260
	Hfo_sO-          5.384e-010       0.115  5.384e-010      -9.269
	Hfo_sOHCa+2      2.771e-013       0.000  2.771e-013     -12.557

Hfo_w         
	 1.826e-007  moles
	                                   Mole                     Log
	Species               Moles    Fraction    Molality    Molality

	Hfo_wOH          1.402e-007       0.768  1.402e-007      -6.853
	Hfo_wOH2+        2.143e-008       0.117  2.143e-008      -7.669
	Hfo_wO-          2.100e-008       0.115  2.100e-008      -7.678
	Hfo_wOCa+        2.086e-014       0.000  2.086e-014     -13.681

