   Input file: sc7
  Output file: sc7.out
Database file: wateq4f.dat

------------------
Reading data base.
------------------

	SOLUTION_MASTER_SPECIES
	SOLUTION_SPECIES
	PHASES
	EXCHANGE_MASTER_SPECIES
	EXCHANGE_SPECIES
	SURFACE_MASTER_SPECIES
	SURFACE_SPECIES
	RATES
	END
------------------------------------
Reading input data for simulation 1.
------------------------------------

	DATABASE wateq4f.dat
	KNOBS
	 iterations 200
	 convergence_tolerance 1e-8
	SOLUTION_SPECIES
	 Na+ = Na+
	 log_k 0
	 gamma 1e10 0
	 Ca+2 = Ca+2
	 log_k 0
	 gamma 1e10 0
	 Cl- = Cl-
	 log_k 0
	 gamma 1e10 0
	 H2O + 0.01e- = H2O-0.01
	 log_k -9
	SURFACE_MASTER_SPECIES /* define sorbed form of Hfo = Sfo */
	 Sfo_s Sfo_sOH
	 Sfo_w Sfo_wOH
	SURFACE_SPECIES
	 Sfo_sOH = Sfo_sOH
	 log_k 0.0
	 Sfo_sOH + H+ = Sfo_sOH2+
	 log_k 7.29
	 Sfo_sOH = Sfo_sO- + H+
	 log_k -8.93
	 Sfo_wOH = Sfo_wOH
	 log_k 0.0
	 Sfo_wOH + H+ = Sfo_wOH2+
	 log_k 7.29
	 Sfo_wOH = Sfo_wO- + H+
	 log_k -8.93
	 Sfo_sOH + Ca+2 = Sfo_sOHCa+2
	 log_k 4.97
	 Sfo_wOH + Ca+2 = Sfo_wOCa+ + H+
	 log_k -5.85
	 Sfo_sOH + Zn+2 = Sfo_sOZn+ + H+
	 log_k 0.99
	 Sfo_wOH + Zn+2 = Sfo_wOZn+ + H+
	 log_k -1.99
	 Sfo_sOH + UO2+2 = Sfo_sOHUO2+2
	 log_k 5.2
	 Sfo_wOH + UO2+2 = Sfo_wOUO2+ + H+
	 log_k 2.8
	SOLUTION 1-21
	 pe 14 O2(g) -0.58
	 Na 1
	 Ca 1
	 Cl 1 charge
	END          
-------------------------------------------
Beginning of initial solution calculations.
-------------------------------------------

Initial solution 1.	

-----------------------------Solution composition------------------------------

	Elements           Molality       Moles

	Ca               1.000e-003  1.000e-003
	Cl               3.000e-003  3.000e-003  Charge balance
	Na               1.000e-003  1.000e-003

----------------------------Description of solution----------------------------

                                       pH  =   7.000    
                                       pe  =  13.652      Equilibrium with O2(g)
                        Activity of water  =   1.000
                           Ionic strength  =  4.000e-003
                       Mass of water (kg)  =  1.000e+000
                 Total alkalinity (eq/kg)  =  2.508e-009
                    Total carbon (mol/kg)  =  0.000e+000
                       Total CO2 (mol/kg)  =  0.000e+000
                      Temperature (deg C)  =  25.000
                  Electrical balance (eq)  = -3.774e-013
 Percent error, 100*(Cat-|An|)/(Cat+|An|)  =  -0.00
                               Iterations  =   7
                                  Total H  = 1.110124e+002
                                  Total O  = 5.550689e+001

----------------------------Distribution of species----------------------------

                                                   Log       Log         Log 
   Species                 Molality    Activity  Molality  Activity     Gamma

   OH-                   1.072e-007  1.001e-007    -6.970    -7.000    -0.030
   H+                    1.064e-007  1.000e-007    -6.973    -7.000    -0.027
   H2O-0.01              7.302e-010  7.302e-010    -9.137    -9.137    -0.000
   H2O                   5.551e+001  9.999e-001     1.744    -0.000     0.000
Ca              1.000e-003
   Ca+2                  1.000e-003  1.000e-003    -3.000    -3.000    -0.000
   CaOH+                 1.777e-009  1.659e-009    -8.750    -8.780    -0.030
Cl              3.000e-003
   Cl-                   3.000e-003  3.000e-003    -2.523    -2.523    -0.000
H(0)            0.000e+000
   H2                    0.000e+000  0.000e+000   -44.454   -44.454     0.000
Na              1.000e-003
   Na+                   1.000e-003  1.000e-003    -3.000    -3.000    -0.000
O(0)            6.734e-004
   O2                    3.367e-004  3.370e-004    -3.473    -3.472     0.000

------------------------------Saturation indices-------------------------------

	Phase               SI log IAP  log KT

	H2(g)           -41.30  -44.45   -3.15  H2
	H2O(g)           -1.51   -0.00    1.51  H2O
	Halite           -7.10   -5.52    1.58  NaCl
	O2(g)            -0.58   -3.47   -2.89  O2
	Portlandite     -11.80   11.00   22.80  Ca(OH)2

------------------
End of simulation.
------------------

------------------------------------
Reading input data for simulation 2.
------------------------------------

	SOLUTION 0
	 pe 14 O2(g) -0.58
	 Na 10
	 Ca 1
	 U 0.001
	 Cl 100 charge
	SURFACE 0
	 Hfo_w 97.5e-5 600 88e-3 Dw 1e-13
	 Hfo_s 2.5e-5
	 donnan 1e-10 #d 1 l 0.99 v 1# 1e-9
	 equilibrate 0
	END
-------------------------------------------
Beginning of initial solution calculations.
-------------------------------------------

Initial solution 0.	

-----------------------------Solution composition------------------------------

	Elements           Molality       Moles

	Ca               1.000e-003  1.000e-003
	Cl               1.200e-002  1.200e-002  Charge balance
	Na               1.000e-002  1.000e-002
	U                1.000e-006  1.000e-006

----------------------------Description of solution----------------------------

                                       pH  =   7.000    
                                       pe  =  13.652      Equilibrium with O2(g)
                        Activity of water  =   1.000
                           Ionic strength  =  1.300e-002
                       Mass of water (kg)  =  1.000e+000
                 Total alkalinity (eq/kg)  =  1.773e-006
                    Total carbon (mol/kg)  =  0.000e+000
                       Total CO2 (mol/kg)  =  0.000e+000
                      Temperature (deg C)  =  25.000
                  Electrical balance (eq)  =  4.331e-016
 Percent error, 100*(Cat-|An|)/(Cat+|An|)  =   0.00
                               Iterations  =  10
                                  Total H  = 1.110124e+002
                                  Total O  = 5.550689e+001

----------------------------Distribution of species----------------------------

                                                   Log       Log         Log 
   Species                 Molality    Activity  Molality  Activity     Gamma

   OH-                   1.123e-007  1.001e-007    -6.950    -7.000    -0.050
   H+                    1.105e-007  1.000e-007    -6.957    -7.000    -0.043
   H2O-0.01              7.300e-010  7.300e-010    -9.137    -9.137    -0.000
   H2O                   5.551e+001  9.996e-001     1.744    -0.000     0.000
Ca              1.000e-003
   Ca+2                  1.000e-003  1.000e-003    -3.000    -3.000    -0.000
   CaOH+                 1.862e-009  1.659e-009    -8.730    -8.780    -0.050
Cl              1.200e-002
   Cl-                   1.200e-002  1.200e-002    -1.921    -1.921    -0.000
   UO2Cl+                3.754e-011  3.345e-011   -10.426   -10.476    -0.050
   UO2Cl2                2.149e-014  2.155e-014   -13.668   -13.666     0.001
   UCl+3                 0.000e+000  0.000e+000   -54.738   -55.189    -0.451
H(0)            0.000e+000
   H2                    0.000e+000  0.000e+000   -44.455   -44.454     0.001
Na              1.000e-002
   Na+                   1.000e-002  1.000e-002    -2.000    -2.000    -0.000
O(0)            6.720e-004
   O2                    3.360e-004  3.370e-004    -3.474    -3.472     0.001
U(3)            0.000e+000
   U+3                   0.000e+000  0.000e+000   -76.985   -77.436    -0.451
U(4)            3.249e-036
   U(OH)4                3.247e-036  3.257e-036   -35.488   -35.487     0.001
   U(OH)3+               1.337e-039  1.191e-039   -38.874   -38.924    -0.050
   U(OH)2+2              0.000e+000  0.000e+000   -43.058   -43.259    -0.201
   UOH+3                 0.000e+000  0.000e+000   -48.077   -48.529    -0.451
   U+4                   0.000e+000  0.000e+000   -54.186   -54.988    -0.802
   UCl+3                 0.000e+000  0.000e+000   -54.738   -55.189    -0.451
   U6(OH)15+9            0.000e+000  0.000e+000  -238.072  -242.134    -4.061
U(5)            1.456e-021
   UO2+                  1.456e-021  1.298e-021   -20.837   -20.887    -0.050
U(6)            1.000e-006
   (UO2)3(OH)5+          2.112e-007  1.882e-007    -6.675    -6.725    -0.050
   UO2OH+                1.334e-007  1.188e-007    -6.875    -6.925    -0.050
   UO2(OH)3-             1.333e-007  1.188e-007    -6.875    -6.925    -0.050
   (UO2)4(OH)7+          1.776e-008  1.583e-008    -7.750    -7.801    -0.050
   (UO2)3(OH)7-          7.489e-009  6.672e-009    -8.126    -8.176    -0.050
   UO2+2                 2.990e-009  1.884e-009    -8.524    -8.725    -0.201
   (UO2)2(OH)2+2         1.351e-009  8.511e-010    -8.869    -9.070    -0.201
   (UO2)3(OH)4+2         1.335e-010  8.410e-011    -9.875   -10.075    -0.201
   UO2Cl+                3.754e-011  3.345e-011   -10.426   -10.476    -0.050
   (UO2)2OH+3            2.002e-013  7.082e-014   -12.699   -13.150    -0.451
   UO2(OH)4-2            2.986e-014  1.881e-014   -13.525   -13.726    -0.201
   UO2Cl2                2.149e-014  2.155e-014   -13.668   -13.666     0.001

------------------------------Saturation indices-------------------------------

	Phase               SI log IAP  log KT

	B-UO2(OH)2       -0.27    5.27    5.54  UO2(OH)2
	Gummite          -5.13    5.27   10.40  UO3
	H2(g)           -41.30  -44.45   -3.15  H2
	H2O(g)           -1.51   -0.00    1.51  H2O
	Halite           -5.50   -3.92    1.58  NaCl
	O2(g)            -0.58   -3.47   -2.89  O2
	Portlandite     -11.80   11.00   22.80  Ca(OH)2
	Schoepite        -0.13    5.27    5.40  UO2(OH)2:H2O
	U3O8(c)         -18.89    1.64   20.53  U3O8
	U4O9(c)         -63.27  -66.65   -3.38  U4O9
	UO2(a)          -27.09  -26.99    0.10  UO2
	UO3(gamma)       -2.44    5.27    7.72  UO3
	Uraninite(c)    -22.19  -26.99   -4.80  UO2

------------------------------------------------------
Beginning of initial surface-composition calculations.
------------------------------------------------------

Surface 0.	

Hfo           
	-4.504e-017  Surface + diffuse layer charge, eq
	 2.093e-005  Surface charge, eq
	 3.825e-002  sigma, C/m**2
	 9.106e-002  psi, V
	-3.544e+000  -F*psi/RT
	 2.888e-002  exp(-F*psi/RT)
	 6.000e+002  specific area, m**2/g
	 5.280e+001  m**2 for  8.800e-002 g

	Water in diffuse layer: 5.280e-006 kg, 100.0% of total DDL-water.

	Total moles in diffuse layer (excluding water), Donnan calculation 

	Element       	     Moles
	Ca            	 4.8431e-014
	Cl            	 2.0927e-005
	H             	 9.8469e-010
	Na            	 1.5986e-010
	O             	 5.0761e-009
	U             	 2.7164e-010

Hfo_s         
	 2.500e-005  moles
	                                   Mole                     Log
	Species               Moles    Fraction    Molality    Molality

	Hfo_sOUO2+       2.456e-005       0.982  2.456e-005      -4.610
	Hfo_sOH          2.847e-007       0.011  2.847e-007      -6.546
	Hfo_sO-          1.158e-007       0.005  1.158e-007      -6.936
	Hfo_sOHCa+2      2.217e-008       0.001  2.217e-008      -7.654
	Hfo_sOH2+        1.604e-008       0.001  1.604e-008      -7.795

Hfo_w         
	 9.750e-004  moles
	                                   Mole                     Log
	Species               Moles    Fraction    Molality    Molality

	Hfo_wOH          5.396e-004       0.553  5.396e-004      -3.268
	Hfo_wO-          2.195e-004       0.225  2.195e-004      -3.659
	Hfo_wOUO2+       1.853e-004       0.190  1.853e-004      -3.732
	Hfo_wOH2+        3.039e-005       0.031  3.039e-005      -4.517
	Hfo_wOCa+        2.202e-007       0.000  2.202e-007      -6.657

-----------------------------------------
Beginning of batch-reaction calculations.
-----------------------------------------

Reaction step 1.

Using solution 0.	
Using surface 0.	Surface assemblage after simulation 2.

------------------------------Surface composition------------------------------

Hfo           
	-9.642e-012  Surface + diffuse layer charge, eq
	 2.093e-005  Surface charge, eq
	 3.825e-002  sigma, C/m**2
	 9.106e-002  psi, V
	-3.544e+000  -F*psi/RT
	 2.888e-002  exp(-F*psi/RT)
	 6.000e+002  specific area, m**2/g
	 5.280e+001  m**2 for  8.800e-002 g

	Water in diffuse layer: 5.280e-006 kg, 100.0% of total DDL-water.

	Total moles in diffuse layer (excluding water), Donnan calculation 

	Element       	     Moles
	Ca            	 4.8431e-014
	Cl            	 2.0927e-005
	H             	 9.8469e-010
	Na            	 1.5986e-010
	O             	 5.0761e-009
	U             	 2.7164e-010

Hfo_s         
	 2.500e-005  moles
	                                   Mole                     Log
	Species               Moles    Fraction    Molality    Molality

	Hfo_sOUO2+       2.456e-005       0.982  2.456e-005      -4.610
	Hfo_sOH          2.847e-007       0.011  2.847e-007      -6.546
	Hfo_sO-          1.158e-007       0.005  1.158e-007      -6.936
	Hfo_sOHCa+2      2.217e-008       0.001  2.217e-008      -7.654
	Hfo_sOH2+        1.604e-008       0.001  1.604e-008      -7.795

Hfo_w         
	 9.750e-004  moles
	                                   Mole                     Log
	Species               Moles    Fraction    Molality    Molality

	Hfo_wOH          5.396e-004       0.553  5.396e-004      -3.268
	Hfo_wO-          2.195e-004       0.225  2.195e-004      -3.659
	Hfo_wOUO2+       1.853e-004       0.190  1.853e-004      -3.732
	Hfo_wOH2+        3.039e-005       0.031  3.039e-005      -4.517
	Hfo_wOCa+        2.202e-007       0.000  2.202e-007      -6.657

-----------------------------Solution composition------------------------------

	Elements           Molality       Moles

	Ca               1.000e-003  1.000e-003
	Cl               1.200e-002  1.200e-002
	Na               1.000e-002  1.000e-002
	U                1.000e-006  1.000e-006

----------------------------Description of solution----------------------------

                                       pH  =   7.000      Charge balance
                                       pe  =  13.652      Adjusted to redox equilibrium
                        Activity of water  =   1.000
                           Ionic strength  =  1.300e-002
                       Mass of water (kg)  =  1.000e+000
                 Total alkalinity (eq/kg)  =  1.773e-006
                    Total carbon (mol/kg)  =  0.000e+000
                       Total CO2 (mol/kg)  =  0.000e+000
                      Temperature (deg C)  =  25.000
                  Electrical balance (eq)  =  2.918e-013
 Percent error, 100*(Cat-|An|)/(Cat+|An|)  =   0.00
                               Iterations  =   0
                                  Total H  = 1.110124e+002
                                  Total O  = 5.550689e+001

----------------------------Distribution of species----------------------------

                                                   Log       Log         Log 
   Species                 Molality    Activity  Molality  Activity     Gamma

   OH-                   1.123e-007  1.001e-007    -6.950    -7.000    -0.050
   H+                    1.105e-007  1.000e-007    -6.957    -7.000    -0.043
   H2O-0.01              7.300e-010  7.300e-010    -9.137    -9.137    -0.000
   H2O                   5.551e+001  9.996e-001     1.744    -0.000     0.000
Ca              1.000e-003
   Ca+2                  1.000e-003  1.000e-003    -3.000    -3.000    -0.000
   CaOH+                 1.862e-009  1.659e-009    -8.730    -8.780    -0.050
Cl              1.200e-002
   Cl-                   1.200e-002  1.200e-002    -1.921    -1.921    -0.000
   UO2Cl+                3.754e-011  3.345e-011   -10.426   -10.476    -0.050
   UO2Cl2                2.149e-014  2.155e-014   -13.668   -13.666     0.001
   UCl+3                 0.000e+000  0.000e+000   -54.738   -55.189    -0.451
H(0)            0.000e+000
   H2                    0.000e+000  0.000e+000   -44.455   -44.454     0.001
Na              1.000e-002
   Na+                   1.000e-002  1.000e-002    -2.000    -2.000    -0.000
O(0)            6.720e-004
   O2                    3.360e-004  3.370e-004    -3.474    -3.472     0.001
U(3)            0.000e+000
   U+3                   0.000e+000  0.000e+000   -76.985   -77.436    -0.451
U(4)            3.249e-036
   U(OH)4                3.247e-036  3.257e-036   -35.488   -35.487     0.001
   U(OH)3+               1.337e-039  1.191e-039   -38.874   -38.924    -0.050
   U(OH)2+2              0.000e+000  0.000e+000   -43.058   -43.259    -0.201
   UOH+3                 0.000e+000  0.000e+000   -48.077   -48.529    -0.451
   U+4                   0.000e+000  0.000e+000   -54.186   -54.988    -0.802
   UCl+3                 0.000e+000  0.000e+000   -54.738   -55.189    -0.451
   U6(OH)15+9            0.000e+000  0.000e+000  -238.072  -242.134    -4.061
U(5)            1.456e-021
   UO2+                  1.456e-021  1.298e-021   -20.837   -20.887    -0.050
U(6)            1.000e-006
   (UO2)3(OH)5+          2.112e-007  1.882e-007    -6.675    -6.725    -0.050
   UO2OH+                1.334e-007  1.188e-007    -6.875    -6.925    -0.050
   UO2(OH)3-             1.333e-007  1.188e-007    -6.875    -6.925    -0.050
   (UO2)4(OH)7+          1.776e-008  1.583e-008    -7.750    -7.801    -0.050
   (UO2)3(OH)7-          7.489e-009  6.672e-009    -8.126    -8.176    -0.050
   UO2+2                 2.990e-009  1.884e-009    -8.524    -8.725    -0.201
   (UO2)2(OH)2+2         1.351e-009  8.511e-010    -8.869    -9.070    -0.201
   (UO2)3(OH)4+2         1.335e-010  8.410e-011    -9.875   -10.075    -0.201
   UO2Cl+                3.754e-011  3.345e-011   -10.426   -10.476    -0.050
   (UO2)2OH+3            2.002e-013  7.082e-014   -12.699   -13.150    -0.451
   UO2(OH)4-2            2.986e-014  1.881e-014   -13.525   -13.726    -0.201
   UO2Cl2                2.149e-014  2.155e-014   -13.668   -13.666     0.001

------------------------------Saturation indices-------------------------------

	Phase               SI log IAP  log KT

	B-UO2(OH)2       -0.27    5.27    5.54  UO2(OH)2
	Gummite          -5.13    5.27   10.40  UO3
	H2(g)           -41.30  -44.45   -3.15  H2
	H2O(g)           -1.51   -0.00    1.51  H2O
	Halite           -5.50   -3.92    1.58  NaCl
	O2(g)            -0.58   -3.47   -2.89  O2
	Portlandite     -11.80   11.00   22.80  Ca(OH)2
	Schoepite        -0.13    5.27    5.40  UO2(OH)2:H2O
	U3O8(c)         -18.89    1.64   20.53  U3O8
	U4O9(c)         -63.27  -66.65   -3.38  U4O9
	UO2(a)          -27.09  -26.99    0.10  UO2
	UO3(gamma)       -2.44    5.27    7.72  UO3
	Uraninite(c)    -22.19  -26.99   -4.80  UO2

------------------
End of simulation.
------------------

------------------------------------
Reading input data for simulation 3.
------------------------------------

	PRINT
	 reset false
WARNING: Cell-lengths were read for 1 cells. Last value is used till cell 10.
WARNING: Dispersivities were read for 1 cells. Last value is used till cell 10.
----------------------------------User print-----------------------------------


----------------------------------User print-----------------------------------


----------------------------------User print-----------------------------------


----------------------------------User print-----------------------------------


----------------------------------User print-----------------------------------


----------------------------------User print-----------------------------------


----------------------------------User print-----------------------------------


----------------------------------User print-----------------------------------


----------------------------------User print-----------------------------------


----------------------------------User print-----------------------------------


----------------------------------User print-----------------------------------

Adapting surface in            1 

------------------------------Surface composition------------------------------

Hfo           
	-2.378e-012  Surface + diffuse layer charge, eq
	 1.125e-005  Surface charge, eq
	 3.687e-002  sigma, C/m**2
	 9.820e-002  psi, V
	-3.822e+000  -F*psi/RT
	 2.188e-002  exp(-F*psi/RT)
	 6.000e+002  specific area, m**2/g
	 2.945e+001  m**2 for  4.909e-002 g

	Water in diffuse layer: 2.945e-006 kg, 100.0% of total DDL-water.

	Total moles in diffuse layer (excluding water), Donnan calculation 

	Element       	     Moles
	Ca            	 1.2982e-014
	Cl            	 1.1253e-005
	H             	 5.8104e-010
	Na            	 3.7200e-011
	O             	 2.8814e-009
	U             	 1.5971e-010

Hfo_s         
	 1.394e-005  moles
	                                   Mole                     Log
	Species               Moles    Fraction    Molality    Molality

	Hfo_sOUO2+       1.370e-005       0.983  1.370e-005      -4.863
	Hfo_sOH          1.602e-007       0.011  1.602e-007      -6.795
	Hfo_sO-          6.493e-008       0.005  6.493e-008      -7.188
	Hfo_sOH2+        9.057e-009       0.001  9.057e-009      -8.043
	Hfo_sOHCa+2      7.156e-009       0.001  7.156e-009      -8.145

Hfo_w         
	 5.439e-004  moles
	                                   Mole                     Log
	Species               Moles    Fraction    Molality    Molality

	Hfo_wOH          3.017e-004       0.555  3.017e-004      -3.520
	Hfo_wO-          1.223e-004       0.225  1.223e-004      -3.913
	Hfo_wOUO2+       1.027e-004       0.189  1.027e-004      -3.988
	Hfo_wOH2+        1.706e-005       0.031  1.706e-005      -4.768
	Hfo_wOCa+        7.035e-008       0.000  7.035e-008      -7.153

----------------------------------User print-----------------------------------

Adapting surface in            2 

------------------------------Surface composition------------------------------

Hfo           
	 2.984e-011  Surface + diffuse layer charge, eq
	 6.415e-006  Surface charge, eq
	 3.518e-002  sigma, C/m**2
	 1.021e-001  psi, V
	-3.975e+000  -F*psi/RT
	 1.877e-002  exp(-F*psi/RT)
	 6.000e+002  specific area, m**2/g
	 1.760e+001  m**2 for  2.933e-002 g

	Water in diffuse layer: 1.760e-006 kg, 100.0% of total DDL-water.

	Total moles in diffuse layer (excluding water), Donnan calculation 

	Element       	     Moles
	Ca            	 4.7717e-015
	Cl            	 6.4151e-006
	H             	 3.6696e-010
	Na            	 1.1586e-011
	O             	 1.7518e-009
	U             	 1.0030e-010

Hfo_s         
	 8.333e-006  moles
	                                   Mole                     Log
	Species               Moles    Fraction    Molality    Molality

	Hfo_sOUO2+       8.188e-006       0.983  8.188e-006      -5.087
	Hfo_sOH          9.697e-008       0.012  9.697e-008      -7.013
	Hfo_sO-          3.906e-008       0.005  3.906e-008      -7.408
	Hfo_sOH2+        5.514e-009       0.001  5.514e-009      -8.259
	Hfo_sOHCa+2      3.189e-009       0.000  3.189e-009      -8.496

Hfo_w         
	 3.250e-004  moles
	                                   Mole                     Log
	Species               Moles    Fraction    Molality    Molality

	Hfo_wOH          1.809e-004       0.557  1.809e-004      -3.742
	Hfo_wO-          7.289e-005       0.224  7.289e-005      -4.137
	Hfo_wOUO2+       6.082e-005       0.187  6.082e-005      -4.216
	Hfo_wOH2+        1.029e-005       0.032  1.029e-005      -4.988
	Hfo_wOCa+        3.088e-008       0.000  3.088e-008      -7.510

----------------------------------User print-----------------------------------

Adapting surface in            3 

------------------------------Surface composition------------------------------

Hfo           
	 1.344e-013  Surface + diffuse layer charge, eq
	 1.778e-006  Surface charge, eq
	 2.984e-002  sigma, C/m**2
	 1.024e-001  psi, V
	-3.986e+000  -F*psi/RT
	 1.856e-002  exp(-F*psi/RT)
	 6.000e+002  specific area, m**2/g
	 5.750e+000  m**2 for  9.583e-003 g

	Water in diffuse layer: 5.750e-007 kg, 100.0% of total DDL-water.

	Total moles in diffuse layer (excluding water), Donnan calculation 

	Element       	     Moles
	Ca            	 9.5381e-016
	Cl            	 1.7784e-006
	H             	 1.3712e-010
	Na            	 1.4665e-012
	O             	 5.9761e-010
	U             	 3.6691e-011

Hfo_s         
	 2.723e-006  moles
	                                   Mole                     Log
	Species               Moles    Fraction    Molality    Molality

	Hfo_sOUO2+       2.673e-006       0.982  2.673e-006      -5.573
	Hfo_sOH          3.317e-008       0.012  3.317e-008      -7.479
	Hfo_sO-          1.307e-008       0.005  1.307e-008      -7.884
	Hfo_sOH2+        1.929e-009       0.001  1.929e-009      -8.715
	Hfo_sOHCa+2      1.067e-009       0.000  1.067e-009      -8.972

Hfo_w         
	 1.062e-004  moles
	                                   Mole                     Log
	Species               Moles    Fraction    Molality    Molality

	Hfo_wOH          5.988e-005       0.564  5.988e-005      -4.223
	Hfo_wO-          2.359e-005       0.222  2.359e-005      -4.627
	Hfo_wOUO2+       1.921e-005       0.181  1.921e-005      -4.716
	Hfo_wOH2+        3.483e-006       0.033  3.483e-006      -5.458
	Hfo_wOCa+        9.775e-009       0.000  9.775e-009      -8.010

----------------------------------User print-----------------------------------

Adapting surface in            4 

----------------------------------User print-----------------------------------

Adapting surface in            5 

----------------------------------User print-----------------------------------

Adapting surface in            6 

----------------------------------User print-----------------------------------

Adapting surface in            7 

----------------------------------User print-----------------------------------

Adapting surface in            8 

----------------------------------User print-----------------------------------

Adapting surface in            9 

----------------------------------User print-----------------------------------

Adapting surface in           10 

----------------------------------User print-----------------------------------

Adapting surface in            1 

------------------------------Surface composition------------------------------

Hfo           
	-3.974e-012  Surface + diffuse layer charge, eq
	 1.532e-005  Surface charge, eq
	 3.807e-002  sigma, C/m**2
	 9.487e-002  psi, V
	-3.693e+000  -F*psi/RT
	 2.491e-002  exp(-F*psi/RT)
	 6.000e+002  specific area, m**2/g
	 3.884e+001  m**2 for  6.473e-002 g

	Water in diffuse layer: 3.884e-006 kg, 86.8% of total DDL-water.

	Total moles in diffuse layer (excluding water), Donnan calculation 

	Element       	     Moles
	Ca            	 2.5055e-014
	Cl            	 1.5323e-005
	H             	 7.5145e-010
	Na            	 7.9068e-011
	O             	 3.7786e-009
	U             	 2.0804e-010

Hfo_s         
	 1.839e-005  moles
	                                   Mole                     Log
	Species               Moles    Fraction    Molality    Molality

	Hfo_sOUO2+       1.807e-005       0.983  1.807e-005      -4.743
	Hfo_sOH          2.081e-007       0.011  2.081e-007      -6.682
	Hfo_sO-          8.509e-008       0.005  8.509e-008      -7.070
	Hfo_sOHCa+2      1.205e-008       0.001  1.205e-008      -7.919
	Hfo_sOH2+        1.166e-008       0.001  1.166e-008      -7.933

Hfo_w         
	 7.172e-004  moles
	                                   Mole                     Log
	Species               Moles    Fraction    Molality    Molality

	Hfo_wOH          3.960e-004       0.552  3.960e-004      -3.402
	Hfo_wO-          1.619e-004       0.226  1.619e-004      -3.791
	Hfo_wOUO2+       1.369e-004       0.191  1.369e-004      -3.864
	Hfo_wOH2+        2.219e-005       0.031  2.219e-005      -4.654
	Hfo_wOCa+        1.208e-007       0.000  1.208e-007      -6.918

Sfo           
	-5.834e-013  Surface + diffuse layer charge, eq
	 2.250e-006  Surface charge, eq
	 3.685e-002  sigma, C/m**2
	 9.328e-002  psi, V
	-3.631e+000  -F*psi/RT
	 2.650e-002  exp(-F*psi/RT)
	 6.000e+002  specific area, m**2/g
	 5.890e+000  m**2 for  9.817e-003 g

	Water in diffuse layer: 5.890e-007 kg, 13.2% of total DDL-water.

	Total moles in diffuse layer (excluding water), Donnan calculation 

	Element       	     Moles
	Ca            	 4.0559e-015
	Cl            	 2.2495e-006
	H             	 1.1031e-010
	Na            	 1.2389e-011
	O             	 5.6741e-010
	U             	 3.0540e-011

Sfo_s         
	 2.789e-006  moles
	                                   Mole                     Log
	Species               Moles    Fraction    Molality    Molality

	Sfo_sOH          1.848e-006       0.663  1.848e-006      -5.733
	Sfo_sO-          7.101e-007       0.255  7.101e-007      -6.149
	Sfo_sOHCa+2      1.211e-007       0.043  1.211e-007      -6.917
	Sfo_sOH2+        1.101e-007       0.039  1.101e-007      -6.958
	Sfo_sOHUO2+2     5.219e-013       0.000  5.219e-013     -12.282

Sfo_w         
	 1.088e-004  moles
	                                   Mole                     Log
	Species               Moles    Fraction    Molality    Molality

	Sfo_wOH          6.003e-005       0.552  6.003e-005      -4.222
	Sfo_wO-          2.307e-005       0.212  2.307e-005      -4.637
	Sfo_wOUO2+       2.208e-005       0.203  2.208e-005      -4.656
	Sfo_wOH2+        3.579e-006       0.033  3.579e-006      -5.446
	Sfo_wOCa+        1.947e-008       0.000  1.947e-008      -7.711

----------------------------------User print-----------------------------------

Adapting surface in            2 

------------------------------Surface composition------------------------------

Hfo           
	-4.676e-012  Surface + diffuse layer charge, eq
	 1.130e-005  Surface charge, eq
	 3.744e-002  sigma, C/m**2
	 9.781e-002  psi, V
	-3.807e+000  -F*psi/RT
	 2.221e-002  exp(-F*psi/RT)
	 6.000e+002  specific area, m**2/g
	 2.911e+001  m**2 for  4.852e-002 g

	Water in diffuse layer: 2.911e-006 kg, 89.2% of total DDL-water.

	Total moles in diffuse layer (excluding water), Donnan calculation 

	Element       	     Moles
	Ca            	 1.3823e-014
	Cl            	 1.1298e-005
	H             	 5.7668e-010
	Na            	 4.0918e-011
	O             	 2.8534e-009
	U             	 1.5935e-010

Hfo_s         
	 1.378e-005  moles
	                                   Mole                     Log
	Species               Moles    Fraction    Molality    Molality

	Hfo_sOUO2+       1.355e-005       0.983  1.355e-005      -4.868
	Hfo_sOH          1.567e-007       0.011  1.567e-007      -6.805
	Hfo_sO-          6.394e-008       0.005  6.394e-008      -7.194
	Hfo_sOH2+        8.800e-009       0.001  8.800e-009      -8.056
	Hfo_sOHCa+2      7.216e-009       0.001  7.216e-009      -8.142

Hfo_w         
	 5.376e-004  moles
	                                   Mole                     Log
	Species               Moles    Fraction    Molality    Molality

	Hfo_wOH          2.973e-004       0.553  2.973e-004      -3.527
	Hfo_wO-          1.213e-004       0.226  1.213e-004      -3.916
	Hfo_wOUO2+       1.023e-004       0.190  1.023e-004      -3.990
	Hfo_wOH2+        1.669e-005       0.031  1.669e-005      -4.778
	Hfo_wOCa+        7.194e-008       0.000  7.194e-008      -7.143

Sfo           
	-5.469e-013  Surface + diffuse layer charge, eq
	 1.321e-006  Surface charge, eq
	 3.623e-002  sigma, C/m**2
	 9.619e-002  psi, V
	-3.744e+000  -F*psi/RT
	 2.366e-002  exp(-F*psi/RT)
	 6.000e+002  specific area, m**2/g
	 3.520e+000  m**2 for  5.866e-003 g

	Water in diffuse layer: 3.520e-007 kg, 10.8% of total DDL-water.

	Total moles in diffuse layer (excluding water), Donnan calculation 

	Element       	     Moles
	Ca            	 1.7851e-015
	Cl            	 1.3214e-006
	H             	 6.7452e-011
	Na            	 5.1127e-012
	O             	 3.4144e-010
	U             	 1.8638e-011

Sfo_s         
	 1.667e-006  moles
	                                   Mole                     Log
	Species               Moles    Fraction    Molality    Molality

	Sfo_sOH          1.115e-006       0.669  1.115e-006      -5.953
	Sfo_sO-          4.270e-007       0.256  4.270e-007      -6.370
	Sfo_sOH2+        6.666e-008       0.040  6.666e-008      -7.176
	Sfo_sOHCa+2      5.822e-008       0.035  5.822e-008      -7.235
	Sfo_sOHUO2+2     3.148e-013       0.000  3.148e-013     -12.502

Sfo_w         
	 6.499e-005  moles
	                                   Mole                     Log
	Species               Moles    Fraction    Molality    Molality

	Sfo_wOH          3.591e-005       0.553  3.591e-005      -4.445
	Sfo_wO-          1.376e-005       0.212  1.376e-005      -4.861
	Sfo_wOUO2+       1.317e-005       0.203  1.317e-005      -4.881
	Sfo_wOH2+        2.148e-006       0.033  2.148e-006      -5.668
	Sfo_wOCa+        9.257e-009       0.000  9.257e-009      -8.034

----------------------------------User print-----------------------------------

Adapting surface in            3 

------------------------------Surface composition------------------------------

Hfo           
	-2.359e-012  Surface + diffuse layer charge, eq
	 6.202e-006  Surface charge, eq
	 3.570e-002  sigma, C/m**2
	 1.017e-001  psi, V
	-3.960e+000  -F*psi/RT
	 1.906e-002  exp(-F*psi/RT)
	 6.000e+002  specific area, m**2/g
	 1.676e+001  m**2 for  2.794e-002 g

	Water in diffuse layer: 1.676e-006 kg, 93.6% of total DDL-water.

	Total moles in diffuse layer (excluding water), Donnan calculation 

	Element       	     Moles
	Ca            	 4.9060e-015
	Cl            	 6.2023e-006
	H             	 3.4975e-010
	Na            	 1.2404e-011
	O             	 1.6698e-009
	U             	 9.6056e-011

Hfo_s         
	 7.937e-006  moles
	                                   Mole                     Log
	Species               Moles    Fraction    Molality    Molality

	Hfo_sOUO2+       7.800e-006       0.983  7.800e-006      -5.108
	Hfo_sOH          9.148e-008       0.012  9.148e-008      -7.039
	Hfo_sO-          3.708e-008       0.005  3.708e-008      -7.431
	Hfo_sOH2+        5.170e-009       0.001  5.170e-009      -8.286
	Hfo_sOHCa+2      3.102e-009       0.000  3.102e-009      -8.508

Hfo_w         
	 3.095e-004  moles
	                                   Mole                     Log
	Species               Moles    Fraction    Molality    Molality

	Hfo_wOH          1.718e-004       0.555  1.718e-004      -3.765
	Hfo_wO-          6.965e-005       0.225  6.965e-005      -4.157
	Hfo_wOUO2+       5.833e-005       0.188  5.833e-005      -4.234
	Hfo_wOH2+        9.712e-006       0.031  9.712e-006      -5.013
	Hfo_wOCa+        3.042e-008       0.000  3.042e-008      -7.517

Sfo           
	-1.565e-013  Surface + diffuse layer charge, eq
	 4.115e-007  Surface charge, eq
	 3.453e-002  sigma, C/m**2
	 1.001e-001  psi, V
	-3.896e+000  -F*psi/RT
	 2.033e-002  exp(-F*psi/RT)
	 6.000e+002  specific area, m**2/g
	 1.150e+000  m**2 for  1.917e-003 g

	Water in diffuse layer: 1.150e-007 kg,  6.4% of total DDL-water.

	Total moles in diffuse layer (excluding water), Donnan calculation 

	Element       	     Moles
	Ca            	 3.5988e-016
	Cl            	 4.1147e-007
	H             	 2.3203e-011
	Na            	 8.7995e-013
	O             	 1.1333e-010
	U             	 6.3725e-012

Sfo_s         
	 5.445e-007  moles
	                                   Mole                     Log
	Species               Moles    Fraction    Molality    Molality

	Sfo_sOH          3.682e-007       0.676  3.682e-007      -6.434
	Sfo_sO-          1.399e-007       0.257  1.399e-007      -6.854
	Sfo_sOH2+        2.219e-008       0.041  2.219e-008      -7.654
	Sfo_sOHCa+2      1.420e-008       0.026  1.420e-008      -7.848
	Sfo_sOHUO2+2     1.035e-013       0.000  1.035e-013     -12.985

Sfo_w         
	 2.124e-005  moles
	                                   Mole                     Log
	Species               Moles    Fraction    Molality    Molality

	Sfo_wOH          1.178e-005       0.555  1.178e-005      -4.929
	Sfo_wO-          4.477e-006       0.211  4.477e-006      -5.349
	Sfo_wOUO2+       4.265e-006       0.201  4.265e-006      -5.370
	Sfo_wOH2+        7.102e-007       0.033  7.102e-007      -6.149
	Sfo_wOCa+        2.225e-009       0.000  2.225e-009      -8.653

----------------------------------User print-----------------------------------

Adapting surface in            4 

------------------------------Surface composition------------------------------

Hfo           
	-3.215e-013  Surface + diffuse layer charge, eq
	 2.398e-006  Surface charge, eq
	 3.188e-002  sigma, C/m**2
	 1.030e-001  psi, V
	-4.010e+000  -F*psi/RT
	 1.814e-002  exp(-F*psi/RT)
	 6.000e+002  specific area, m**2/g
	 7.259e+000  m**2 for  1.210e-002 g

	Water in diffuse layer: 7.259e-007 kg, 100.0% of total DDL-water.

	Total moles in diffuse layer (excluding water), Donnan calculation 

	Element       	     Moles
	Ca            	 1.3768e-015
	Cl            	 2.3982e-006
	H             	 1.6627e-010
	Na            	 2.5459e-012
	O             	 7.4486e-010
	U             	 4.4986e-011

Hfo_s         
	 3.437e-006  moles
	                                   Mole                     Log
	Species               Moles    Fraction    Molality    Molality

	Hfo_sOUO2+       3.376e-006       0.982  3.376e-006      -5.472
	Hfo_sOH          4.092e-008       0.012  4.092e-008      -7.388
	Hfo_sO-          1.632e-008       0.005  1.632e-008      -7.787
	Hfo_sOH2+        2.350e-009       0.001  2.350e-009      -8.629
	Hfo_sOHCa+2      1.256e-009       0.000  1.256e-009      -8.901

Hfo_w         
	 1.340e-004  moles
	                                   Mole                     Log
	Species               Moles    Fraction    Molality    Molality

	Hfo_wOH          7.510e-005       0.560  7.510e-005      -4.124
	Hfo_wO-          2.995e-005       0.223  2.995e-005      -4.524
	Hfo_wOUO2+       2.466e-005       0.184  2.466e-005      -4.608
	Hfo_wOH2+        4.313e-006       0.032  4.313e-006      -5.365
	Hfo_wOCa+        1.184e-008       0.000  1.184e-008      -7.926

----------------------------------User print-----------------------------------

Adapting surface in            5 

------------------------------Surface composition------------------------------

Hfo           
	 8.445e-014  Surface + diffuse layer charge, eq
	 7.006e-007  Surface charge, eq
	 2.635e-002  sigma, C/m**2
	 9.852e-002  psi, V
	-3.835e+000  -F*psi/RT
	 2.161e-002  exp(-F*psi/RT)
	 6.000e+002  specific area, m**2/g
	 2.565e+000  m**2 for  4.276e-003 g

	Water in diffuse layer: 2.565e-007 kg, 100.0% of total DDL-water.

	Total moles in diffuse layer (excluding water), Donnan calculation 

	Element       	     Moles
	Ca            	 4.3347e-016
	Cl            	 7.0057e-007
	H             	 6.5007e-011
	Na            	 5.1587e-013
	O             	 2.7185e-010
	U             	 1.7058e-011

Hfo_s         
	 1.215e-006  moles
	                                   Mole                     Log
	Species               Moles    Fraction    Molality    Molality

	Hfo_sOUO2+       1.192e-006       0.981  1.192e-006      -5.924
	Hfo_sOH          1.541e-008       0.013  1.541e-008      -7.812
	Hfo_sO-          5.941e-009       0.005  5.941e-009      -8.226
	Hfo_sOH2+        9.156e-010       0.001  9.156e-010      -9.038
	Hfo_sOHCa+2      6.713e-010       0.001  6.713e-010      -9.173

Hfo_w         
	 4.737e-005  moles
	                                   Mole                     Log
	Species               Moles    Fraction    Molality    Molality

	Hfo_wOH          2.702e-005       0.570  2.702e-005      -4.568
	Hfo_wO-          1.042e-005       0.220  1.042e-005      -4.982
	Hfo_wOUO2+       8.320e-006       0.176  8.320e-006      -5.080
	Hfo_wOH2+        1.606e-006       0.034  1.606e-006      -5.794
	Hfo_wOCa+        5.847e-009       0.000  5.847e-009      -8.233

----------------------------------User print-----------------------------------

Adapting surface in            6 

------------------------------Surface composition------------------------------

Hfo           
	 6.455e-016  Surface + diffuse layer charge, eq
	 1.082e-007  Surface charge, eq
	 2.084e-002  sigma, C/m**2
	 8.956e-002  psi, V
	-3.486e+000  -F*psi/RT
	 3.062e-002  exp(-F*psi/RT)
	 6.000e+002  specific area, m**2/g
	 5.009e-001  m**2 for  8.349e-004 g

	Water in diffuse layer: 5.009e-008 kg, 100.0% of total DDL-water.

	Total moles in diffuse layer (excluding water), Donnan calculation 

	Element       	     Moles
	Ca            	 1.0382e-016
	Cl            	 1.0819e-007
	H             	 1.1524e-011
	Na            	 7.9815e-014
	O             	 5.0766e-011
	U             	 2.7549e-012

Hfo_s         
	 2.372e-007  moles
	                                   Mole                     Log
	Species               Moles    Fraction    Molality    Molality

	Hfo_sOUO2+       2.318e-007       0.977  2.318e-007      -6.635
	Hfo_sOH          3.572e-009       0.015  3.572e-009      -8.447
	Hfo_sO-          1.240e-009       0.005  1.240e-009      -8.907
	Hfo_sOHCa+2      3.126e-010       0.001  3.126e-010      -9.505
	Hfo_sOH2+        2.358e-010       0.001  2.358e-010      -9.628

Hfo_w         
	 9.250e-006  moles
	                                   Mole                     Log
	Species               Moles    Fraction    Molality    Molality

	Hfo_wOH          5.533e-006       0.598  5.533e-006      -5.257
	Hfo_wO-          1.920e-006       0.208  1.920e-006      -5.717
	Hfo_wOUO2+       1.430e-006       0.155  1.430e-006      -5.845
	Hfo_wOH2+        3.652e-007       0.039  3.652e-007      -6.437
	Hfo_wOCa+        2.165e-009       0.000  2.165e-009      -8.665

----------------------------------User print-----------------------------------

Adapting surface in            7 

----------------------------------User print-----------------------------------

Adapting surface in            8 

----------------------------------User print-----------------------------------

Adapting surface in            9 

----------------------------------User print-----------------------------------

Adapting surface in           10 

----------------------------------User print-----------------------------------

Adapting surface in            1 

------------------------------Surface composition------------------------------

Hfo           
	-6.680e-012  Surface + diffuse layer charge, eq
	 1.697e-005  Surface charge, eq
	 3.868e-002  sigma, C/m**2
	 9.365e-002  psi, V
	-3.645e+000  -F*psi/RT
	 2.611e-002  exp(-F*psi/RT)
	 6.000e+002  specific area, m**2/g
	 4.234e+001  m**2 for  7.057e-002 g

	Water in diffuse layer: 4.234e-006 kg, 75.6% of total DDL-water.

	Total moles in diffuse layer (excluding water), Donnan calculation 

	Element       	     Moles
	Ca            	 3.1627e-014
	Cl            	 1.6973e-005
	H             	 8.1435e-010
	Na            	 1.0357e-010
	O             	 4.1131e-009
	U             	 2.2626e-010

Hfo_s         
	 2.005e-005  moles
	                                   Mole                     Log
	Species               Moles    Fraction    Molality    Molality

	Hfo_sOUO2+       1.970e-005       0.983  1.970e-005      -4.705
	Hfo_sOH          2.252e-007       0.011  2.252e-007      -6.647
	Hfo_sO-          9.249e-008       0.005  9.249e-008      -7.034
	Hfo_sOHCa+2      1.433e-008       0.001  1.433e-008      -7.844
	Hfo_sOH2+        1.256e-008       0.001  1.256e-008      -7.901

Hfo_w         
	 7.819e-004  moles
	                                   Mole                     Log
	Species               Moles    Fraction    Molality    Molality

	Hfo_wOH          4.308e-004       0.551  4.308e-004      -3.366
	Hfo_wO-          1.769e-004       0.226  1.769e-004      -3.752
	Hfo_wOUO2+       1.500e-004       0.192  1.500e-004      -3.824
	Hfo_wOH2+        2.403e-005       0.031  2.403e-005      -4.619
	Hfo_wOCa+        1.450e-007       0.000  1.450e-007      -6.839

Sfo           
	-2.086e-012  Surface + diffuse layer charge, eq
	 5.300e-006  Surface charge, eq
	 3.745e-002  sigma, C/m**2
	 9.208e-002  psi, V
	-3.584e+000  -F*psi/RT
	 2.776e-002  exp(-F*psi/RT)
	 6.000e+002  specific area, m**2/g
	 1.366e+001  m**2 for  2.276e-002 g

	Water in diffuse layer: 1.366e-006 kg, 24.4% of total DDL-water.

	Total moles in diffuse layer (excluding water), Donnan calculation 

	Element       	     Moles
	Ca            	 1.0883e-014
	Cl            	 5.3003e-006
	H             	 2.5430e-010
	Na            	 3.4505e-011
	O             	 1.3137e-009
	U             	 7.0656e-011

Sfo_s         
	 6.467e-006  moles
	                                   Mole                     Log
	Species               Moles    Fraction    Molality    Molality

	Sfo_sOH          4.262e-006       0.659  4.262e-006      -5.370
	Sfo_sO-          1.646e-006       0.255  1.646e-006      -5.784
	Sfo_sOHCa+2      3.065e-007       0.047  3.065e-007      -6.514
	Sfo_sOH2+        2.528e-007       0.039  2.528e-007      -6.597
	Sfo_sOHUO2+2     1.206e-012       0.000  1.206e-012     -11.919

Sfo_w         
	 2.522e-004  moles
	                                   Mole                     Log
	Species               Moles    Fraction    Molality    Molality

	Sfo_wOH          1.389e-004       0.551  1.389e-004      -3.857
	Sfo_wO-          5.363e-005       0.213  5.363e-005      -4.271
	Sfo_wOUO2+       5.143e-005       0.204  5.143e-005      -4.289
	Sfo_wOH2+        8.237e-006       0.033  8.237e-006      -5.084
	Sfo_wOCa+        4.969e-008       0.000  4.969e-008      -7.304

----------------------------------User print-----------------------------------

Adapting surface in            2 

------------------------------Surface composition------------------------------

Hfo           
	-4.384e-012  Surface + diffuse layer charge, eq
	 1.380e-005  Surface charge, eq
	 3.843e-002  sigma, C/m**2
	 9.553e-002  psi, V
	-3.718e+000  -F*psi/RT
	 2.427e-002  exp(-F*psi/RT)
	 6.000e+002  specific area, m**2/g
	 3.464e+001  m**2 for  5.774e-002 g

	Water in diffuse layer: 3.464e-006 kg, 78.8% of total DDL-water.

	Total moles in diffuse layer (excluding water), Donnan calculation 

	Element       	     Moles
	Ca            	 2.1529e-014
	Cl            	 1.3796e-005
	H             	 6.7679e-010
	Na            	 6.8421e-011
	O             	 3.3821e-009
	U             	 1.8807e-010

Hfo_s         
	 1.640e-005  moles
	                                   Mole                     Log
	Species               Moles    Fraction    Molality    Molality

	Hfo_sOUO2+       1.612e-005       0.983  1.612e-005      -4.793
	Hfo_sOH          1.843e-007       0.011  1.843e-007      -6.735
	Hfo_sO-          7.571e-008       0.005  7.571e-008      -7.121
	Hfo_sOH2+        1.028e-008       0.001  1.028e-008      -7.988
	Hfo_sOHCa+2      1.013e-008       0.001  1.013e-008      -7.994

Hfo_w         
	 6.397e-004  moles
	                                   Mole                     Log
	Species               Moles    Fraction    Molality    Molality

	Hfo_wOH          3.524e-004       0.551  3.524e-004      -3.453
	Hfo_wO-          1.448e-004       0.226  1.448e-004      -3.839
	Hfo_wOUO2+       1.228e-004       0.192  1.228e-004      -3.911
	Hfo_wOH2+        1.965e-005       0.031  1.965e-005      -4.707
	Hfo_wOCa+        1.025e-007       0.000  1.025e-007      -6.989

Sfo           
	-1.144e-012  Surface + diffuse layer charge, eq
	 3.601e-006  Surface charge, eq
	 3.719e-002  sigma, C/m**2
	 9.394e-002  psi, V
	-3.656e+000  -F*psi/RT
	 2.583e-002  exp(-F*psi/RT)
	 6.000e+002  specific area, m**2/g
	 9.342e+000  m**2 for  1.557e-002 g

	Water in diffuse layer: 9.342e-007 kg, 21.2% of total DDL-water.

	Total moles in diffuse layer (excluding water), Donnan calculation 

	Element       	     Moles
	Ca            	 6.1971e-015
	Cl            	 3.6010e-006
	H             	 1.7665e-010
	Na            	 1.9063e-011
	O             	 9.0294e-010
	U             	 4.9088e-011

Sfo_s         
	 4.423e-006  moles
	                                   Mole                     Log
	Species               Moles    Fraction    Molality    Molality

	Sfo_sOH          2.934e-006       0.663  2.934e-006      -5.533
	Sfo_sO-          1.133e-006       0.256  1.133e-006      -5.946
	Sfo_sOHCa+2      1.826e-007       0.041  1.826e-007      -6.738
	Sfo_sOH2+        1.741e-007       0.039  1.741e-007      -6.759
	Sfo_sOHUO2+2     8.312e-013       0.000  8.312e-013     -12.080

Sfo_w         
	 1.725e-004  moles
	                                   Mole                     Log
	Species               Moles    Fraction    Molality    Molality

	Sfo_wOH          9.498e-005       0.551  9.498e-005      -4.022
	Sfo_wO-          3.667e-005       0.213  3.667e-005      -4.436
	Sfo_wOUO2+       3.520e-005       0.204  3.520e-005      -4.453
	Sfo_wOH2+        5.636e-006       0.033  5.636e-006      -5.249
	Sfo_wOCa+        2.940e-008       0.000  2.940e-008      -7.532

----------------------------------User print-----------------------------------

Adapting surface in            3 

------------------------------Surface composition------------------------------

Hfo           
	-2.387e-012  Surface + diffuse layer charge, eq
	 9.418e-006  Surface charge, eq
	 3.766e-002  sigma, C/m**2
	 9.853e-002  psi, V
	-3.835e+000  -F*psi/RT
	 2.160e-002  exp(-F*psi/RT)
	 6.000e+002  specific area, m**2/g
	 2.413e+001  m**2 for  4.022e-002 g

	Water in diffuse layer: 2.413e-006 kg, 84.3% of total DDL-water.

	Total moles in diffuse layer (excluding water), Donnan calculation 

	Element       	     Moles
	Ca            	 1.0887e-014
	Cl            	 9.4174e-006
	H             	 4.8565e-010
	Na            	 3.2217e-011
	O             	 2.3780e-009
	U             	 1.3475e-010

Hfo_s         
	 1.142e-005  moles
	                                   Mole                     Log
	Species               Moles    Fraction    Molality    Molality

	Hfo_sOUO2+       1.123e-005       0.983  1.123e-005      -4.950
	Hfo_sOH          1.289e-007       0.011  1.289e-007      -6.890
	Hfo_sO-          5.287e-008       0.005  5.287e-008      -7.277
	Hfo_sOH2+        7.195e-009       0.001  7.195e-009      -8.143
	Hfo_sOHCa+2      5.611e-009       0.000  5.611e-009      -8.251

Hfo_w         
	 4.456e-004  moles
	                                   Mole                     Log
	Species               Moles    Fraction    Molality    Molality

	Hfo_wOH          2.457e-004       0.551  2.457e-004      -3.610
	Hfo_wO-          1.008e-004       0.226  1.008e-004      -3.996
	Hfo_wOUO2+       8.526e-005       0.191  8.526e-005      -4.069
	Hfo_wOH2+        1.372e-005       0.031  1.372e-005      -4.863
	Hfo_wOCa+        5.655e-008       0.000  5.655e-008      -7.248

Sfo           
	-4.310e-013  Surface + diffuse layer charge, eq
	 1.700e-006  Surface charge, eq
	 3.644e-002  sigma, C/m**2
	 9.690e-002  psi, V
	-3.772e+000  -F*psi/RT
	 2.301e-002  exp(-F*psi/RT)
	 6.000e+002  specific area, m**2/g
	 4.503e+000  m**2 for  7.504e-003 g

	Water in diffuse layer: 4.503e-007 kg, 15.7% of total DDL-water.

	Total moles in diffuse layer (excluding water), Donnan calculation 

	Element       	     Moles
	Ca            	 2.1703e-015
	Cl            	 1.7002e-006
	H             	 8.7680e-011
	Na            	 6.2137e-012
	O             	 4.3917e-010
	U             	 2.4328e-011

Sfo_s         
	 2.132e-006  moles
	                                   Mole                     Log
	Species               Moles    Fraction    Molality    Molality

	Sfo_sOH          1.427e-006       0.669  1.427e-006      -5.846
	Sfo_sO-          5.496e-007       0.258  5.496e-007      -6.260
	Sfo_sOH2+        8.487e-008       0.040  8.487e-008      -7.071
	Sfo_sOHCa+2      7.051e-008       0.033  7.051e-008      -7.152
	Sfo_sOHUO2+2     4.041e-013       0.000  4.041e-013     -12.393

Sfo_w         
	 8.314e-005  moles
	                                   Mole                     Log
	Species               Moles    Fraction    Molality    Molality

	Sfo_wOH          4.582e-005       0.551  4.582e-005      -4.339
	Sfo_wO-          1.765e-005       0.212  1.765e-005      -4.753
	Sfo_wOUO2+       1.694e-005       0.204  1.694e-005      -4.771
	Sfo_wOH2+        2.726e-006       0.033  2.726e-006      -5.565
	Sfo_wOCa+        1.123e-008       0.000  1.123e-008      -7.949

----------------------------------User print-----------------------------------

Adapting surface in            4 

------------------------------Surface composition------------------------------

Hfo           
	-1.043e-012  Surface + diffuse layer charge, eq
	 5.451e-006  Surface charge, eq
	 3.600e-002  sigma, C/m**2
	 1.016e-001  psi, V
	-3.953e+000  -F*psi/RT
	 1.919e-002  exp(-F*psi/RT)
	 6.000e+002  specific area, m**2/g
	 1.461e+001  m**2 for  2.435e-002 g

	Water in diffuse layer: 1.461e-006 kg, 91.0% of total DDL-water.

	Total moles in diffuse layer (excluding water), Donnan calculation 

	Element       	     Moles
	Ca            	 4.4425e-015
	Cl            	 5.4504e-006
	H             	 3.0775e-010
	Na            	 1.1470e-011
	O             	 1.4605e-009
	U             	 8.4911e-011

Hfo_s         
	 6.917e-006  moles
	                                   Mole                     Log
	Species               Moles    Fraction    Molality    Molality

	Hfo_sOUO2+       6.798e-006       0.983  6.798e-006      -5.168
	Hfo_sOH          7.900e-008       0.011  7.900e-008      -7.102
	Hfo_sO-          3.222e-008       0.005  3.222e-008      -7.492
	Hfo_sOH2+        4.438e-009       0.001  4.438e-009      -8.353
	Hfo_sOHCa+2      2.716e-009       0.000  2.716e-009      -8.566

Hfo_w         
	 2.697e-004  moles
	                                   Mole                     Log
	Species               Moles    Fraction    Molality    Molality

	Hfo_wOH          1.493e-004       0.553  1.493e-004      -3.826
	Hfo_wO-          6.089e-005       0.226  6.089e-005      -4.215
	Hfo_wOUO2+       5.115e-005       0.190  5.115e-005      -4.291
	Hfo_wOH2+        8.387e-006       0.031  8.387e-006      -5.076
	Hfo_wOCa+        2.696e-008       0.000  2.696e-008      -7.569

Sfo           
	-1.003e-013  Surface + diffuse layer charge, eq
	 5.239e-007  Surface charge, eq
	 3.482e-002  sigma, C/m**2
	 9.991e-002  psi, V
	-3.889e+000  -F*psi/RT
	 2.047e-002  exp(-F*psi/RT)
	 6.000e+002  specific area, m**2/g
	 1.452e+000  m**2 for  2.420e-003 g

	Water in diffuse layer: 1.452e-007 kg,  9.0% of total DDL-water.

	Total moles in diffuse layer (excluding water), Donnan calculation 

	Element       	     Moles
	Ca            	 4.7202e-016
	Cl            	 5.2386e-007
	H             	 2.9579e-011
	Na            	 1.1787e-012
	O             	 1.4358e-010
	U             	 8.1613e-012

Sfo_s         
	 6.874e-007  moles
	                                   Mole                     Log
	Species               Moles    Fraction    Molality    Molality

	Sfo_sOH          4.640e-007       0.675  4.640e-007      -6.333
	Sfo_sO-          1.774e-007       0.258  1.774e-007      -6.751
	Sfo_sOH2+        2.779e-008       0.040  2.779e-008      -7.556
	Sfo_sOHCa+2      1.814e-008       0.026  1.814e-008      -7.741
	Sfo_sOHUO2+2     1.308e-013       0.000  1.308e-013     -12.883

Sfo_w         
	 2.681e-005  moles
	                                   Mole                     Log
	Species               Moles    Fraction    Molality    Molality

	Sfo_wOH          1.483e-005       0.553  1.483e-005      -4.829
	Sfo_wO-          5.671e-006       0.212  5.671e-006      -5.246
	Sfo_wOUO2+       5.417e-006       0.202  5.417e-006      -5.266
	Sfo_wOH2+        8.883e-007       0.033  8.883e-007      -6.051
	Sfo_wOCa+        2.856e-009       0.000  2.856e-009      -8.544

----------------------------------User print-----------------------------------

Adapting surface in            5 

------------------------------Surface composition------------------------------

Hfo           
	-3.447e-013  Surface + diffuse layer charge, eq
	 2.740e-006  Surface charge, eq
	 3.311e-002  sigma, C/m**2
	 1.030e-001  psi, V
	-4.009e+000  -F*psi/RT
	 1.816e-002  exp(-F*psi/RT)
	 6.000e+002  specific area, m**2/g
	 7.986e+000  m**2 for  1.331e-002 g

	Water in diffuse layer: 7.986e-007 kg, 94.0% of total DDL-water.

	Total moles in diffuse layer (excluding water), Donnan calculation 

	Element       	     Moles
	Ca            	 1.6914e-015
	Cl            	 2.7403e-006
	H             	 1.7986e-010
	Na            	 3.4752e-012
	O             	 8.1549e-010
	U             	 4.9053e-011

Hfo_s         
	 3.781e-006  moles
	                                   Mole                     Log
	Species               Moles    Fraction    Molality    Molality

	Hfo_sOUO2+       3.715e-006       0.983  3.715e-006      -5.430
	Hfo_sOH          4.429e-008       0.012  4.429e-008      -7.354
	Hfo_sO-          1.784e-008       0.005  1.784e-008      -7.749
	Hfo_sOH2+        2.520e-009       0.001  2.520e-009      -8.599
	Hfo_sOHCa+2      1.363e-009       0.000  1.363e-009      -8.866

Hfo_w         
	 1.475e-004  moles
	                                   Mole                     Log
	Species               Moles    Fraction    Molality    Molality

	Hfo_wOH          8.222e-005       0.558  8.222e-005      -4.085
	Hfo_wO-          3.311e-005       0.224  3.311e-005      -4.480
	Hfo_wOUO2+       2.745e-005       0.186  2.745e-005      -4.561
	Hfo_wOH2+        4.678e-006       0.032  4.678e-006      -5.330
	Hfo_wOCa+        1.312e-008       0.000  1.312e-008      -7.882

Sfo           
	-2.141e-014  Surface + diffuse layer charge, eq
	 1.702e-007  Surface charge, eq
	 3.201e-002  sigma, C/m**2
	 1.013e-001  psi, V
	-3.944e+000  -F*psi/RT
	 1.938e-002  exp(-F*psi/RT)
	 6.000e+002  specific area, m**2/g
	 5.131e-001  m**2 for  8.551e-004 g

	Water in diffuse layer: 5.131e-008 kg,  6.0% of total DDL-water.

	Total moles in diffuse layer (excluding water), Donnan calculation 

	Element       	     Moles
	Ca            	 1.1626e-016
	Cl            	 1.7021e-007
	H             	 1.1172e-011
	Na            	 2.3095e-013
	O             	 5.1800e-011
	U             	 3.0469e-012

Sfo_s         
	 2.429e-007  moles
	                                   Mole                     Log
	Species               Moles    Fraction    Molality    Molality

	Sfo_sOH          1.649e-007       0.679  1.649e-007      -6.783
	Sfo_sO-          6.222e-008       0.256  6.222e-008      -7.206
	Sfo_sOH2+        1.001e-008       0.041  1.001e-008      -7.999
	Sfo_sOHCa+2      5.778e-009       0.024  5.778e-009      -8.238
	Sfo_sOHUO2+2     4.597e-014       0.000  4.597e-014     -13.338

Sfo_w         
	 9.474e-006  moles
	                                   Mole                     Log
	Species               Moles    Fraction    Molality    Molality

	Sfo_wOH          5.280e-006       0.557  5.280e-006      -5.277
	Sfo_wO-          1.992e-006       0.210  1.992e-006      -5.701
	Sfo_wOUO2+       1.881e-006       0.199  1.881e-006      -5.726
	Sfo_wOH2+        3.206e-007       0.034  3.206e-007      -6.494
	Sfo_wOCa+        8.991e-010       0.000  8.991e-010      -9.046

----------------------------------User print-----------------------------------

Adapting surface in            6 

------------------------------Surface composition------------------------------

Hfo           
	 1.749e-012  Surface + diffuse layer charge, eq
	 1.051e-006  Surface charge, eq
	 2.868e-002  sigma, C/m**2
	 1.008e-001  psi, V
	-3.922e+000  -F*psi/RT
	 1.980e-002  exp(-F*psi/RT)
	 6.000e+002  specific area, m**2/g
	 3.538e+000  m**2 for  5.896e-003 g

	Water in diffuse layer: 3.538e-007 kg, 97.2% of total DDL-water.

	Total moles in diffuse layer (excluding water), Donnan calculation 

	Element       	     Moles
	Ca            	 6.1524e-016
	Cl            	 1.0513e-006
	H             	 8.7092e-011
	Na            	 8.9386e-013
	O             	 3.7177e-010
	U             	 2.3251e-011

Hfo_s         
	 1.675e-006  moles
	                                   Mole                     Log
	Species               Moles    Fraction    Molality    Molality

	Hfo_sOUO2+       1.644e-006       0.982  1.644e-006      -5.784
	Hfo_sOH          2.053e-008       0.012  2.053e-008      -7.688
	Hfo_sO-          8.073e-009       0.005  8.073e-009      -8.093
	Hfo_sOH2+        1.196e-009       0.001  1.196e-009      -8.922
	Hfo_sOHCa+2      7.509e-010       0.000  7.509e-010      -9.124

Hfo_w         
	 6.533e-005  moles
	                                   Mole                     Log
	Species               Moles    Fraction    Molality    Molality

	Hfo_wOH          3.689e-005       0.565  3.689e-005      -4.433
	Hfo_wO-          1.451e-005       0.222  1.451e-005      -4.838
	Hfo_wOUO2+       1.177e-005       0.180  1.177e-005      -4.929
	Hfo_wOH2+        2.149e-006       0.033  2.149e-006      -5.668
	Hfo_wOCa+        6.838e-009       0.000  6.838e-009      -8.165

Sfo           
	 4.815e-014  Surface + diffuse layer charge, eq
	 2.878e-008  Surface charge, eq
	 2.772e-002  sigma, C/m**2
	 9.909e-002  psi, V
	-3.857e+000  -F*psi/RT
	 2.114e-002  exp(-F*psi/RT)
	 6.000e+002  specific area, m**2/g
	 1.002e-001  m**2 for  1.670e-004 g

	Water in diffuse layer: 1.002e-008 kg,  2.8% of total DDL-water.

	Total moles in diffuse layer (excluding water), Donnan calculation 

	Element       	     Moles
	Ca            	 1.8651e-017
	Cl            	 2.8777e-008
	H             	 2.3839e-012
	Na            	 2.6191e-014
	O             	 1.0402e-011
	U             	 6.3644e-013

Sfo_s         
	 4.744e-008  moles
	                                   Mole                     Log
	Species               Moles    Fraction    Molality    Molality

	Sfo_sOH          3.222e-008       0.679  3.222e-008      -7.492
	Sfo_sO-          1.187e-008       0.250  1.187e-008      -7.926
	Sfo_sOH2+        2.003e-009       0.042  2.003e-009      -8.698
	Sfo_sOHCa+2      1.343e-009       0.028  1.343e-009      -8.872
	Sfo_sOHUO2+2     8.787e-015       0.000  8.787e-015     -14.056

Sfo_w         
	 1.850e-006  moles
	                                   Mole                     Log
	Species               Moles    Fraction    Molality    Molality

	Sfo_wOH          1.044e-006       0.565  1.044e-006      -5.981
	Sfo_wO-          3.848e-007       0.208  3.848e-007      -6.415
	Sfo_wOUO2+       3.556e-007       0.192  3.556e-007      -6.449
	Sfo_wOH2+        6.495e-008       0.035  6.495e-008      -7.187
	Sfo_wOCa+        2.067e-010       0.000  2.067e-010      -9.685

----------------------------------User print-----------------------------------

Adapting surface in            7 

------------------------------Surface composition------------------------------

Hfo           
	 2.778e-014  Surface + diffuse layer charge, eq
	 3.028e-007  Surface charge, eq
	 2.382e-002  sigma, C/m**2
	 9.479e-002  psi, V
	-3.690e+000  -F*psi/RT
	 2.498e-002  exp(-F*psi/RT)
	 6.000e+002  specific area, m**2/g
	 1.227e+000  m**2 for  2.044e-003 g

	Water in diffuse layer: 1.227e-007 kg, 100.0% of total DDL-water.

	Total moles in diffuse layer (excluding water), Donnan calculation 

	Element       	     Moles
	Ca            	 2.2312e-016
	Cl            	 3.0279e-007
	H             	 3.1367e-011
	Na            	 2.1952e-013
	O             	 1.3001e-010
	U             	 8.0275e-012

Hfo_s         
	 5.807e-007  moles
	                                   Mole                     Log
	Species               Moles    Fraction    Molality    Molality

	Hfo_sOUO2+       5.692e-007       0.980  5.692e-007      -6.245
	Hfo_sOH          7.733e-009       0.013  7.733e-009      -8.112
	Hfo_sO-          2.897e-009       0.005  2.897e-009      -8.538
	Hfo_sOH2+        4.728e-010       0.001  4.728e-010      -9.325
	Hfo_sOHCa+2      4.505e-010       0.001  4.505e-010      -9.346

Hfo_w         
	 2.265e-005  moles
	                                   Mole                     Log
	Species               Moles    Fraction    Molality    Molality

	Hfo_wOH          1.310e-005       0.578  1.310e-005      -4.883
	Hfo_wO-          4.908e-006       0.217  4.908e-006      -5.309
	Hfo_wOUO2+       3.838e-006       0.169  3.838e-006      -5.416
	Hfo_wOH2+        8.009e-007       0.035  8.009e-007      -6.096
	Hfo_wOCa+        3.683e-009       0.000  3.683e-009      -8.434

----------------------------------User print-----------------------------------

Adapting surface in            8 

------------------------------Surface composition------------------------------

Hfo           
	 4.414e-016  Surface + diffuse layer charge, eq
	 6.549e-008  Surface charge, eq
	 2.016e-002  sigma, C/m**2
	 8.810e-002  psi, V
	-3.429e+000  -F*psi/RT
	 3.241e-002  exp(-F*psi/RT)
	 6.000e+002  specific area, m**2/g
	 3.134e-001  m**2 for  5.224e-004 g

	Water in diffuse layer: 3.134e-008 kg, 100.0% of total DDL-water.

	Total moles in diffuse layer (excluding water), Donnan calculation 

	Element       	     Moles
	Ca            	 6.8364e-017
	Cl            	 6.5486e-008
	H             	 6.6879e-012
	Na            	 5.0149e-014
	O             	 3.0886e-011
	U             	 1.5462e-012

Hfo_s         
	 1.484e-007  moles
	                                   Mole                     Log
	Species               Moles    Fraction    Molality    Molality

	Hfo_sOUO2+       1.448e-007       0.976  1.448e-007      -6.839
	Hfo_sOH          2.366e-009       0.016  2.366e-009      -8.626
	Hfo_sO-          7.927e-010       0.005  7.927e-010      -9.101
	Hfo_sOHCa+2      2.320e-010       0.002  2.320e-010      -9.635
	Hfo_sOH2+        1.617e-010       0.001  1.617e-010      -9.791

Hfo_w         
	 5.788e-006  moles
	                                   Mole                     Log
	Species               Moles    Fraction    Molality    Molality

	Hfo_wOH          3.513e-006       0.607  3.513e-006      -5.454
	Hfo_wO-          1.177e-006       0.203  1.177e-006      -5.929
	Hfo_wOUO2+       8.562e-007       0.148  8.562e-007      -6.067
	Hfo_wOH2+        2.402e-007       0.041  2.402e-007      -6.620
	Hfo_wOCa+        1.487e-009       0.000  1.487e-009      -8.828

----------------------------------User print-----------------------------------

Adapting surface in            9 

------------------------------Surface composition------------------------------

Hfo           
	-4.032e-016  Surface + diffuse layer charge, eq
	 7.660e-009  Surface charge, eq
	 1.694e-002  sigma, C/m**2
	 8.022e-002  psi, V
	-3.122e+000  -F*psi/RT
	 4.405e-002  exp(-F*psi/RT)
	 6.000e+002  specific area, m**2/g
	 4.364e-002  m**2 for  7.274e-005 g

	Water in diffuse layer: 4.364e-009 kg, 100.0% of total DDL-water.

	Total moles in diffuse layer (excluding water), Donnan calculation 

	Element       	     Moles
	Ca            	 1.2865e-017
	Cl            	 7.6594e-009
	H             	 5.2831e-013
	Na            	 7.5775e-015
	O             	 3.6428e-012
	U             	 8.7873e-014

Hfo_s         
	 2.066e-008  moles
	                                   Mole                     Log
	Species               Moles    Fraction    Molality    Molality

	Hfo_sOUO2+       1.985e-008       0.961  1.985e-008      -7.702
	Hfo_sOH          5.337e-010       0.026  5.337e-010      -9.273
	Hfo_sO-          1.386e-010       0.007  1.386e-010      -9.858
	Hfo_sOHCa+2      9.663e-011       0.005  9.663e-011     -10.015
	Hfo_sOH2+        4.707e-011       0.002  4.707e-011     -10.327

Hfo_w         
	 8.059e-007  moles
	                                   Mole                     Log
	Species               Moles    Fraction    Molality    Molality

	Hfo_wOH          5.385e-007       0.668  5.385e-007      -6.269
	Hfo_wO-          1.398e-007       0.174  1.398e-007      -6.854
	Hfo_wOUO2+       7.973e-008       0.099  7.973e-008      -7.098
	Hfo_wOH2+        4.750e-008       0.059  4.750e-008      -7.323
	Hfo_wOCa+        3.262e-010       0.000  3.262e-010      -9.487

----------------------------------User print-----------------------------------

Adapting surface in           10 

----------------------------------User print-----------------------------------

Adapting surface in            1 

------------------------------Surface composition------------------------------

Hfo           
	-1.007e-011  Surface + diffuse layer charge, eq
	 1.769e-005  Surface charge, eq
	 3.902e-002  sigma, C/m**2
	 9.313e-002  psi, V
	-3.625e+000  -F*psi/RT
	 2.665e-002  exp(-F*psi/RT)
	 6.000e+002  specific area, m**2/g
	 4.376e+001  m**2 for  7.293e-002 g

	Water in diffuse layer: 4.376e-006 kg, 66.4% of total DDL-water.

	Total moles in diffuse layer (excluding water), Donnan calculation 

	Element       	     Moles
	Ca            	 3.4946e-014
	Cl            	 1.7694e-005
	H             	 8.3947e-010
	Na            	 1.1652e-010
	O             	 4.2480e-009
	U             	 2.3369e-010

Hfo_s         
	 2.072e-005  moles
	                                   Mole                     Log
	Species               Moles    Fraction    Molality    Molality

	Hfo_sOUO2+       2.036e-005       0.983  2.036e-005      -4.691
	Hfo_sOH          2.318e-007       0.011  2.318e-007      -6.635
	Hfo_sO-          9.542e-008       0.005  9.542e-008      -7.020
	Hfo_sOHCa+2      1.536e-008       0.001  1.536e-008      -7.814
	Hfo_sOH2+        1.290e-008       0.001  1.290e-008      -7.889

Hfo_w         
	 8.081e-004  moles
	                                   Mole                     Log
	Species               Moles    Fraction    Molality    Molality

	Hfo_wOH          4.446e-004       0.550  4.446e-004      -3.352
	Hfo_wO-          1.830e-004       0.226  1.830e-004      -3.737
	Hfo_wOUO2+       1.555e-004       0.192  1.555e-004      -3.808
	Hfo_wOH2+        2.475e-005       0.031  2.475e-005      -4.606
	Hfo_wOCa+        1.562e-007       0.000  1.562e-007      -6.806

Sfo           
	-4.929e-012  Surface + diffuse layer charge, eq
	 8.663e-006  Surface charge, eq
	 3.778e-002  sigma, C/m**2
	 9.157e-002  psi, V
	-3.564e+000  -F*psi/RT
	 2.832e-002  exp(-F*psi/RT)
	 6.000e+002  specific area, m**2/g
	 2.213e+001  m**2 for  3.688e-002 g

	Water in diffuse layer: 2.213e-006 kg, 33.6% of total DDL-water.

	Total moles in diffuse layer (excluding water), Donnan calculation 

	Element       	     Moles
	Ca            	 1.8846e-014
	Cl            	 8.6628e-006
	H             	 4.1099e-010
	Na            	 6.0845e-011
	O             	 2.1269e-009
	U             	 1.1441e-010

Sfo_s         
	 1.048e-005  moles
	                                   Mole                     Log
	Species               Moles    Fraction    Molality    Molality

	Sfo_sOH          6.887e-006       0.657  6.887e-006      -5.162
	Sfo_sO-          2.667e-006       0.255  2.667e-006      -5.574
	Sfo_sOHCa+2      5.155e-007       0.049  5.155e-007      -6.288
	Sfo_sOH2+        4.074e-007       0.039  4.074e-007      -6.390
	Sfo_sOHUO2+2     1.951e-012       0.000  1.951e-012     -11.710

Sfo_w         
	 4.086e-004  moles
	                                   Mole                     Log
	Species               Moles    Fraction    Molality    Molality

	Sfo_wOH          2.247e-004       0.550  2.247e-004      -3.648
	Sfo_wO-          8.701e-005       0.213  8.701e-005      -4.060
	Sfo_wOUO2+       8.352e-005       0.204  8.352e-005      -4.078
	Sfo_wOH2+        1.329e-005       0.033  1.329e-005      -4.876
	Sfo_wOCa+        8.389e-008       0.000  8.389e-008      -7.076

----------------------------------User print-----------------------------------

Adapting surface in            2 

------------------------------Surface composition------------------------------

Hfo           
	-6.124e-012  Surface + diffuse layer charge, eq
	 1.505e-005  Surface charge, eq
	 3.903e-002  sigma, C/m**2
	 9.445e-002  psi, V
	-3.676e+000  -F*psi/RT
	 2.532e-002  exp(-F*psi/RT)
	 6.000e+002  specific area, m**2/g
	 3.721e+001  m**2 for  6.202e-002 g

	Water in diffuse layer: 3.721e-006 kg, 69.6% of total DDL-water.

	Total moles in diffuse layer (excluding water), Donnan calculation 

	Element       	     Moles
	Ca            	 2.6447e-014
	Cl            	 1.5051e-005
	H             	 7.2332e-010
	Na            	 8.7086e-011
	O             	 3.6282e-009
	U             	 2.0172e-010

Hfo_s         
	 1.762e-005  moles
	                                   Mole                     Log
	Species               Moles    Fraction    Molality    Molality

	Hfo_sOUO2+       1.732e-005       0.983  1.732e-005      -4.761
	Hfo_sOH          1.965e-007       0.011  1.965e-007      -6.707
	Hfo_sO-          8.108e-008       0.005  8.108e-008      -7.091
	Hfo_sOHCa+2      1.175e-008       0.001  1.175e-008      -7.930
	Hfo_sOH2+        1.091e-008       0.001  1.091e-008      -7.962

Hfo_w         
	 6.872e-004  moles
	                                   Mole                     Log
	Species               Moles    Fraction    Molality    Molality

	Hfo_wOH          3.777e-004       0.550  3.777e-004      -3.423
	Hfo_wO-          1.559e-004       0.227  1.559e-004      -3.807
	Hfo_wOUO2+       1.325e-004       0.193  1.325e-004      -3.878
	Hfo_wOH2+        2.097e-005       0.031  2.097e-005      -4.678
	Hfo_wOCa+        1.201e-007       0.000  1.201e-007      -6.920

Sfo           
	-2.592e-012  Surface + diffuse layer charge, eq
	 6.371e-006  Surface charge, eq
	 3.778e-002  sigma, C/m**2
	 9.286e-002  psi, V
	-3.615e+000  -F*psi/RT
	 2.693e-002  exp(-F*psi/RT)
	 6.000e+002  specific area, m**2/g
	 1.627e+001  m**2 for  2.712e-002 g

	Water in diffuse layer: 1.627e-006 kg, 30.4% of total DDL-water.

	Total moles in diffuse layer (excluding water), Donnan calculation 

	Element       	     Moles
	Ca            	 1.2338e-014
	Cl            	 6.3710e-006
	H             	 3.0617e-010
	Na            	 3.9332e-011
	O             	 1.5707e-009
	U             	 8.5385e-011

Sfo_s         
	 7.704e-006  moles
	                                   Mole                     Log
	Species               Moles    Fraction    Molality    Molality

	Sfo_sOH          5.086e-006       0.660  5.086e-006      -5.294
	Sfo_sO-          1.974e-006       0.256  1.974e-006      -5.705
	Sfo_sOHCa+2      3.441e-007       0.045  3.441e-007      -6.463
	Sfo_sOH2+        3.003e-007       0.039  3.003e-007      -6.522
	Sfo_sOHUO2+2     1.444e-012       0.000  1.444e-012     -11.840

Sfo_w         
	 3.005e-004  moles
	                                   Mole                     Log
	Species               Moles    Fraction    Molality    Molality

	Sfo_wOH          1.650e-004       0.549  1.650e-004      -3.782
	Sfo_wO-          6.404e-005       0.213  6.404e-005      -4.194
	Sfo_wOUO2+       6.159e-005       0.205  6.159e-005      -4.210
	Sfo_wOH2+        9.744e-006       0.032  9.744e-006      -5.011
	Sfo_wOCa+        5.580e-008       0.000  5.580e-008      -7.253

----------------------------------User print-----------------------------------

Adapting surface in            3 

------------------------------Surface composition------------------------------

Hfo           
	-2.879e-012  Surface + diffuse layer charge, eq
	 1.131e-005  Surface charge, eq
	 3.872e-002  sigma, C/m**2
	 9.654e-002  psi, V
	-3.758e+000  -F*psi/RT
	 2.334e-002  exp(-F*psi/RT)
	 6.000e+002  specific area, m**2/g
	 2.820e+001  m**2 for  4.699e-002 g

	Water in diffuse layer: 2.820e-006 kg, 75.1% of total DDL-water.

	Total moles in diffuse layer (excluding water), Donnan calculation 

	Element       	     Moles
	Ca            	 1.6288e-014
	Cl            	 1.1313e-005
	H             	 5.6039e-010
	Na            	 5.1771e-011
	O             	 2.7691e-009
	U             	 1.5643e-010

Hfo_s         
	 1.335e-005  moles
	                                   Mole                     Log
	Species               Moles    Fraction    Molality    Molality

	Hfo_sOUO2+       1.312e-005       0.983  1.312e-005      -4.882
	Hfo_sOH          1.487e-007       0.011  1.487e-007      -6.828
	Hfo_sO-          6.145e-008       0.005  6.145e-008      -7.211
	Hfo_sOH2+        8.240e-009       0.001  8.240e-009      -8.084
	Hfo_sOHCa+2      7.554e-009       0.001  7.554e-009      -8.122

Hfo_w         
	 5.207e-004  moles
	                                   Mole                     Log
	Species               Moles    Fraction    Molality    Molality

	Hfo_wOH          2.860e-004       0.549  2.860e-004      -3.544
	Hfo_wO-          1.182e-004       0.227  1.182e-004      -3.927
	Hfo_wOUO2+       1.005e-004       0.193  1.005e-004      -3.998
	Hfo_wOH2+        1.585e-005       0.030  1.585e-005      -4.800
	Hfo_wOCa+        7.738e-008       0.000  7.738e-008      -7.111

Sfo           
	-9.218e-013  Surface + diffuse layer charge, eq
	 3.622e-006  Surface charge, eq
	 3.747e-002  sigma, C/m**2
	 9.494e-002  psi, V
	-3.695e+000  -F*psi/RT
	 2.484e-002  exp(-F*psi/RT)
	 6.000e+002  specific area, m**2/g
	 9.328e+000  m**2 for  1.555e-002 g

	Water in diffuse layer: 9.328e-007 kg, 24.9% of total DDL-water.

	Total moles in diffuse layer (excluding water), Donnan calculation 

	Element       	     Moles
	Ca            	 5.7529e-015
	Cl            	 3.6223e-006
	H             	 1.7944e-010
	Na            	 1.7697e-011
	O             	 9.0682e-010
	U             	 5.0088e-011

Sfo_s         
	 4.417e-006  moles
	                                   Mole                     Log
	Species               Moles    Fraction    Molality    Molality

	Sfo_sOH          2.935e-006       0.664  2.935e-006      -5.532
	Sfo_sO-          1.140e-006       0.258  1.140e-006      -5.943
	Sfo_sOH2+        1.731e-007       0.039  1.731e-007      -6.762
	Sfo_sOHCa+2      1.689e-007       0.038  1.689e-007      -6.772
	Sfo_sOHUO2+2     8.342e-013       0.000  8.342e-013     -12.079

Sfo_w         
	 1.723e-004  moles
	                                   Mole                     Log
	Species               Moles    Fraction    Molality    Molality

	Sfo_wOH          9.456e-005       0.549  9.456e-005      -4.024
	Sfo_wO-          3.672e-005       0.213  3.672e-005      -4.435
	Sfo_wOUO2+       3.537e-005       0.205  3.537e-005      -4.451
	Sfo_wOH2+        5.578e-006       0.032  5.578e-006      -5.254
	Sfo_wOCa+        2.723e-008       0.000  2.723e-008      -7.565

[...]
	Species               Moles    Fraction    Molality    Molality

	Hfo_sOUO2+       5.049e-008       0.971  5.049e-008      -7.297
	Hfo_sOH          1.116e-009       0.021  1.116e-009      -8.952
	Hfo_sO-          3.234e-010       0.006  3.234e-010      -9.490
	Hfo_sOH2+        8.826e-011       0.002  8.826e-011     -10.054
	Hfo_sOHCa+2      1.838e-015       0.000  1.838e-015     -14.736

Hfo_w         
	 2.029e-006  moles
	                                   Mole                     Log
	Species               Moles    Fraction    Molality    Molality

	Hfo_wOH          1.310e-006       0.646  1.310e-006      -5.883
	Hfo_wO-          3.795e-007       0.187  3.795e-007      -6.421
	Hfo_wOUO2+       2.359e-007       0.116  2.359e-007      -6.627
	Hfo_wOH2+        1.036e-007       0.051  1.036e-007      -6.985
	Hfo_wOCa+        8.049e-015       0.000  8.049e-015     -14.094

Sfo           
	-4.492e-024  Surface + diffuse layer charge, eq
	-1.828e-025  Surface charge, eq
	undefined  sigma, C/m**2
	 1.287e-001  psi, V
	-5.008e+000  -F*psi/RT
	 6.682e-003  exp(-F*psi/RT)
	 6.000e+002  specific area, m**2/g
	 0.000e+000  m**2 for  0.000e+000 g

	Water in diffuse layer: 0.000e+000 kg,  0.0% of total DDL-water.

	Total moles in diffuse layer (excluding water), Donnan calculation 

	Element       	     Moles
	Ca            	 1.1505e-020
	Cl            	 1.0001e-015
	H             	 4.4750e-019
	Na            	 1.0001e-015
	O             	 6.7446e-016
	U             	 1.2727e-019

Sfo_s         
	 1.511e-025  moles
	                                   Mole                     Log
	Species               Moles    Fraction    Molality    Molality

	Sfo_sO-          1.158e-025       0.000  1.158e-025     -24.936
	Sfo_sOH          6.821e-026       0.000  6.821e-026     -25.166
	Sfo_sOH2+        9.204e-028       0.000  9.204e-028     -27.036
	Sfo_sOHCa+2      3.270e-033       0.000  3.270e-033     -32.485
	Sfo_sOHUO2+2     3.644e-034       0.000  3.644e-034     -33.438

Sfo_w         
	 1.084e-025  moles
	                                   Mole                     Log
	Species               Moles    Fraction    Molality    Molality

	Sfo_wO-          6.974e-026       0.000  6.974e-026     -25.156
	Sfo_wOH          4.108e-026       0.000  4.108e-026     -25.386
	Sfo_wOUO2+       1.262e-027       0.000  1.262e-027     -26.899
	Sfo_wOH2+        5.543e-028       0.000  5.543e-028     -27.256
	Sfo_wOCa+        4.308e-035       0.000  4.308e-035     -34.366

----------------------------------User print-----------------------------------

Adapting surface in            6 

------------------------------Surface composition------------------------------

Hfo           
	-1.389e-016  Surface + diffuse layer charge, eq
	 2.374e-008  Surface charge, eq
	 9.622e-003  sigma, C/m**2
	 8.635e-002  psi, V
	-3.361e+000  -F*psi/RT
	 3.470e-002  exp(-F*psi/RT)
	 6.000e+002  specific area, m**2/g
	 2.381e-001  m**2 for  3.969e-004 g

	Water in diffuse layer: 2.381e-008 kg, 100.0% of total DDL-water.

	Total moles in diffuse layer (excluding water), Donnan calculation 

	Element       	     Moles
	Ca            	 5.9167e-022
	Cl            	 2.3740e-008
	H             	 6.4228e-012
	Na            	 2.3895e-014
	O             	 2.5236e-011
	U             	 1.3837e-012

Hfo_s         
	 1.127e-007  moles
	                                   Mole                     Log
	Species               Moles    Fraction    Molality    Molality

	Hfo_sOUO2+       1.099e-007       0.975  1.099e-007      -6.959
	Hfo_sOH          2.046e-009       0.018  2.046e-009      -8.689
	Hfo_sO-          6.492e-010       0.006  6.492e-010      -9.188
	Hfo_sOH2+        1.477e-010       0.001  1.477e-010      -9.831
	Hfo_sOHCa+2      5.666e-015       0.000  5.666e-015     -14.247

Hfo_w         
	 4.397e-006  moles
	                                   Mole                     Log
	Species               Moles    Fraction    Molality    Molality

	Hfo_wOH          2.742e-006       0.624  2.742e-006      -5.562
	Hfo_wO-          8.701e-007       0.198  8.701e-007      -6.060
	Hfo_wOUO2+       5.864e-007       0.133  5.864e-007      -6.232
	Hfo_wOH2+        1.980e-007       0.045  1.980e-007      -6.703
	Hfo_wOCa+        3.104e-014       0.000  3.104e-014     -13.508

Sfo           
	-5.409e-024  Surface + diffuse layer charge, eq
	-1.739e-025  Surface charge, eq
	undefined  sigma, C/m**2
	 1.298e-001  psi, V
	-5.052e+000  -F*psi/RT
	 6.399e-003  exp(-F*psi/RT)
	 6.000e+002  specific area, m**2/g
	 0.000e+000  m**2 for  0.000e+000 g

	Water in diffuse layer: 0.000e+000 kg,  0.0% of total DDL-water.

	Total moles in diffuse layer (excluding water), Donnan calculation 

	Element       	     Moles
	Ca            	 2.4646e-020
	Cl            	 1.0003e-015
	H             	 5.7315e-019
	Na            	 1.0002e-015
	O             	 6.7472e-016
	U             	 1.9948e-019

Sfo_s         
	 1.455e-025  moles
	                                   Mole                     Log
	Species               Moles    Fraction    Molality    Molality

	Sfo_sO-          1.096e-025       0.000  1.096e-025     -24.960
	Sfo_sOH          6.369e-026       0.000  6.369e-026     -25.196
	Sfo_sOH2+        8.481e-028       0.000  8.481e-028     -27.072
	Sfo_sOHCa+2      5.998e-033       0.000  5.998e-033     -32.222
	Sfo_sOHUO2+2     4.308e-034       0.000  4.308e-034     -33.366

Sfo_w         
	 1.060e-025  moles
	                                   Mole                     Log
	Species               Moles    Fraction    Molality    Molality

	Sfo_wO-          6.726e-026       0.000  6.726e-026     -25.172
	Sfo_wOH          3.909e-026       0.000  3.909e-026     -25.408
	Sfo_wOUO2+       1.542e-027       0.000  1.542e-027     -26.812
	Sfo_wOH2+        5.206e-028       0.000  5.206e-028     -27.283
	Sfo_wOCa+        8.161e-035       0.000  8.161e-035     -34.088

----------------------------------User print-----------------------------------

Adapting surface in            7 

------------------------------Surface composition------------------------------

Hfo           
	-1.248e-012  Surface + diffuse layer charge, eq
	 5.100e-008  Surface charge, eq
	 1.030e-002  sigma, C/m**2
	 8.964e-002  psi, V
	-3.489e+000  -F*psi/RT
	 3.053e-002  exp(-F*psi/RT)
	 6.000e+002  specific area, m**2/g
	 4.776e-001  m**2 for  7.960e-004 g

	Water in diffuse layer: 4.776e-008 kg, 100.0% of total DDL-water.

	Total moles in diffuse layer (excluding water), Donnan calculation 

	Element       	     Moles
	Ca            	 2.0533e-021
	Cl            	 5.0990e-008
	H             	 1.4732e-011
	Na            	 4.4777e-014
	O             	 5.3713e-011
	U             	 3.3995e-012

Hfo_s         
	 2.261e-007  moles
	                                   Mole                     Log
	Species               Moles    Fraction    Molality    Molality

	Hfo_sOUO2+       2.210e-007       0.977  2.210e-007      -6.656
	Hfo_sOH          3.669e-009       0.016  3.669e-009      -8.435
	Hfo_sO-          1.243e-009       0.005  1.243e-009      -8.905
	Hfo_sOH2+        2.480e-010       0.001  2.480e-010      -9.605
	Hfo_sOHCa+2      1.560e-014       0.000  1.560e-014     -13.807

Hfo_w         
	 8.819e-006  moles
	                                   Mole                     Log
	Species               Moles    Fraction    Molality    Molality

	Hfo_wOH          5.357e-006       0.607  5.357e-006      -5.271
	Hfo_wO-          1.815e-006       0.206  1.815e-006      -5.741
	Hfo_wOUO2+       1.284e-006       0.146  1.284e-006      -5.891
	Hfo_wOH2+        3.621e-007       0.041  3.621e-007      -6.441
	Hfo_wOCa+        9.942e-014       0.000  9.942e-014     -13.003

Sfo           
	-8.117e-024  Surface + diffuse layer charge, eq
	-1.513e-025  Surface charge, eq
	undefined  sigma, C/m**2
	 1.294e-001  psi, V
	-5.036e+000  -F*psi/RT
	 6.501e-003  exp(-F*psi/RT)
	 6.000e+002  specific area, m**2/g
	 0.000e+000  m**2 for  0.000e+000 g

	Water in diffuse layer: 0.000e+000 kg,  0.0% of total DDL-water.

	Total moles in diffuse layer (excluding water), Donnan calculation 

	Element       	     Moles
	Ca            	 4.8871e-020
	Cl            	 1.0006e-015
	H             	 7.2355e-019
	Na            	 1.0004e-015
	O             	 6.7505e-016
	U             	 2.9015e-019

Sfo_s         
	 1.317e-025  moles
	                                   Mole                     Log
	Species               Moles    Fraction    Molality    Molality

	Sfo_sO-          9.108e-026       0.000  9.108e-026     -25.041
	Sfo_sOH          5.723e-026       0.000  5.723e-026     -25.242
	Sfo_sOH2+        8.238e-028       0.000  8.238e-028     -27.084
	Sfo_sOHCa+2      1.103e-032       0.000  1.103e-032     -31.957
	Sfo_sOHUO2+2     5.418e-034       0.000  5.418e-034     -33.266

Sfo_w         
	 1.049e-025  moles
	                                   Mole                     Log
	Species               Moles    Fraction    Molality    Molality

	Sfo_wO-          6.363e-026       0.000  6.363e-026     -25.196
	Sfo_wOH          3.998e-026       0.000  3.998e-026     -25.398
	Sfo_wOUO2+       2.041e-027       0.000  2.041e-027     -26.690
	Sfo_wOH2+        5.755e-028       0.000  5.755e-028     -27.240
	Sfo_wOCa+        1.580e-034       0.000  1.580e-034     -33.801

----------------------------------User print-----------------------------------

Adapting surface in            8 

------------------------------Surface composition------------------------------

Hfo           
	-4.843e-012  Surface + diffuse layer charge, eq
	 9.986e-008  Surface charge, eq
	 1.113e-002  sigma, C/m**2
	 9.337e-002  psi, V
	-3.635e+000  -F*psi/RT
	 2.640e-002  exp(-F*psi/RT)
	 6.000e+002  specific area, m**2/g
	 8.657e-001  m**2 for  1.443e-003 g

	Water in diffuse layer: 8.657e-008 kg, 100.0% of total DDL-water.

	Total moles in diffuse layer (excluding water), Donnan calculation 

	Element       	     Moles
	Ca            	 5.7305e-021
	Cl            	 9.9855e-008
	H             	 2.8442e-011
	Na            	 7.5196e-014
	O             	 1.0046e-010
	U             	 6.8401e-012

Hfo_s         
	 4.099e-007  moles
	                                   Mole                     Log
	Species               Moles    Fraction    Molality    Molality

	Hfo_sOUO2+       4.011e-007       0.979  4.011e-007      -6.397
	Hfo_sOH          6.195e-009       0.015  6.195e-009      -8.208
	Hfo_sO-          2.192e-009       0.005  2.192e-009      -8.659
	Hfo_sOH2+        4.010e-010       0.001  4.010e-010      -9.397
	Hfo_sOHCa+2      3.535e-014       0.000  3.535e-014     -13.452

Hfo_w         
	 1.599e-005  moles
	                                   Mole                     Log
	Species               Moles    Fraction    Molality    Molality

	Hfo_wOH          9.536e-006       0.597  9.536e-006      -5.021
	Hfo_wO-          3.375e-006       0.211  3.375e-006      -5.472
	Hfo_wOUO2+       2.458e-006       0.154  2.458e-006      -5.609
	Hfo_wOH2+        6.173e-007       0.039  6.173e-007      -6.210
	Hfo_wOCa+        2.480e-013       0.000  2.480e-013     -12.605

Sfo           
	-9.660e-024  Surface + diffuse layer charge, eq
	-2.638e-025  Surface charge, eq
	undefined  sigma, C/m**2
	 1.303e-001  psi, V
	-5.071e+000  -F*psi/RT
	 6.274e-003  exp(-F*psi/RT)
	 6.000e+002  specific area, m**2/g
	 0.000e+000  m**2 for  0.000e+000 g

	Water in diffuse layer: 0.000e+000 kg,  0.0% of total DDL-water.

	Total moles in diffuse layer (excluding water), Donnan calculation 

	Element       	     Moles
	Ca            	 8.7734e-020
	Cl            	 1.0011e-015
	H             	 8.8779e-019
	Na            	 1.0008e-015
	O             	 6.7541e-016
	U             	 3.9376e-019

Sfo_s         
	 1.291e-025  moles
	                                   Mole                     Log
	Species               Moles    Fraction    Molality    Molality

	Sfo_sO-          8.595e-026       0.000  8.595e-026     -25.066
	Sfo_sOH          5.773e-026       0.000  5.773e-026     -25.239
	Sfo_sOH2+        8.882e-028       0.000  8.882e-028     -27.051
	Sfo_sOHCa+2      1.861e-032       0.000  1.861e-032     -31.730
	Sfo_sOHUO2+2     7.010e-034       0.000  7.010e-034     -33.154

Sfo_w         
	 2.212e-025  moles
	                                   Mole                     Log
	Species               Moles    Fraction    Molality    Molality

	Sfo_wO-          1.885e-025       0.000  1.885e-025     -24.725
	Sfo_wOH          1.266e-025       0.000  1.266e-025     -24.898
	Sfo_wOUO2+       7.755e-027       0.000  7.755e-027     -26.110
	Sfo_wOH2+        1.948e-027       0.000  1.948e-027     -26.711
	Sfo_wOCa+        7.825e-034       0.000  7.825e-034     -33.107

----------------------------------User print-----------------------------------

Adapting surface in            9 

------------------------------Surface composition------------------------------

Hfo           
	 2.531e-015  Surface + diffuse layer charge, eq
	 1.645e-007  Surface charge, eq
	 1.196e-002  sigma, C/m**2
	 9.687e-002  psi, V
	-3.771e+000  -F*psi/RT
	 2.304e-002  exp(-F*psi/RT)
	 6.000e+002  specific area, m**2/g
	 1.327e+000  m**2 for  2.212e-003 g

	Water in diffuse layer: 1.327e-007 kg, 100.0% of total DDL-water.

	Total moles in diffuse layer (excluding water), Donnan calculation 

	Element       	     Moles
	Ca            	 1.1607e-020
	Cl            	 1.6450e-007
	H             	 4.3984e-011
	Na            	 1.0740e-013
	O             	 1.5504e-010
	U             	 1.0808e-011

Hfo_s         
	 6.285e-007  moles
	                                   Mole                     Log
	Species               Moles    Fraction    Molality    Molality

	Hfo_sOUO2+       6.154e-007       0.979  6.154e-007      -6.211
	Hfo_sOH          9.139e-009       0.015  9.139e-009      -8.039
	Hfo_sO-          3.311e-009       0.005  3.311e-009      -8.480
	Hfo_sOH2+        5.779e-010       0.001  5.779e-010      -9.238
	Hfo_sOHCa+2      6.050e-014       0.000  6.050e-014     -13.218

Hfo_w         
	 2.451e-005  moles
	                                   Mole                     Log
	Species               Moles    Fraction    Molality    Molality

	Hfo_wOH          1.447e-005       0.590  1.447e-005      -4.839
	Hfo_wO-          5.243e-006       0.214  5.243e-006      -5.280
	Hfo_wOUO2+       3.880e-006       0.158  3.880e-006      -5.411
	Hfo_wOH2+        9.151e-007       0.037  9.151e-007      -6.039
	Hfo_wOCa+        4.471e-013       0.000  4.471e-013     -12.350

Sfo           
	-9.818e-024  Surface + diffuse layer charge, eq
	-2.078e-025  Surface charge, eq
	undefined  sigma, C/m**2
	 1.304e-001  psi, V
	-5.075e+000  -F*psi/RT
	 6.249e-003  exp(-F*psi/RT)
	 6.000e+002  specific area, m**2/g
	 0.000e+000  m**2 for  0.000e+000 g

	Water in diffuse layer: 0.000e+000 kg,  0.0% of total DDL-water.

	Total moles in diffuse layer (excluding water), Donnan calculation 

	Element       	     Moles
	Ca            	 1.3368e-019
	Cl            	 1.0017e-015
	H             	 1.0377e-018
	Na            	 1.0012e-015
	O             	 6.7573e-016
	U             	 4.9046e-019

Sfo_s         
	 1.170e-025  moles
	                                   Mole                     Log
	Species               Moles    Fraction    Molality    Molality

	Sfo_sO-          7.206e-026       0.000  7.206e-026     -25.142
	Sfo_sOH          5.396e-026       0.000  5.396e-026     -25.268
	Sfo_sOH2+        9.255e-028       0.000  9.255e-028     -27.034
	Sfo_sOHCa+2      2.628e-032       0.000  2.628e-032     -31.580
	Sfo_sOHUO2+2     8.671e-034       0.000  8.671e-034     -33.062

Sfo_w         
	 1.917e-025  moles
	                                   Mole                     Log
	Species               Moles    Fraction    Molality    Molality

	Sfo_wO-          1.465e-025       0.000  1.465e-025     -24.834
	Sfo_wOH          1.097e-025       0.000  1.097e-025     -24.960
	Sfo_wOUO2+       7.978e-027       0.000  7.978e-027     -26.098
	Sfo_wOH2+        1.882e-027       0.000  1.882e-027     -26.725
	Sfo_wOCa+        9.194e-034       0.000  9.194e-034     -33.036

----------------------------------User print-----------------------------------

Adapting surface in           10 

------------------------------Surface composition------------------------------

Hfo           
	 1.006e-014  Surface + diffuse layer charge, eq
	 2.150e-007  Surface charge, eq
	 1.250e-002  sigma, C/m**2
	 9.902e-002  psi, V
	-3.854e+000  -F*psi/RT
	 2.119e-002  exp(-F*psi/RT)
	 6.000e+002  specific area, m**2/g
	 1.660e+000  m**2 for  2.767e-003 g

	Water in diffuse layer: 1.660e-007 kg, 100.0% of total DDL-water.

	Total moles in diffuse layer (excluding water), Donnan calculation 

	Element       	     Moles
	Ca            	 1.6597e-020
	Cl            	 2.1497e-007
	H             	 5.4549e-011
	Na            	 1.2866e-013
	O             	 1.9347e-010
	U             	 1.3525e-011

Hfo_s         
	 7.860e-007  moles
	                                   Mole                     Log
	Species               Moles    Fraction    Molality    Molality

	Hfo_sOUO2+       7.700e-007       0.980  7.700e-007      -6.114
	Hfo_sOH          1.124e-008       0.014  1.124e-008      -7.949
	Hfo_sO-          4.113e-009       0.005  4.113e-009      -8.386
	Hfo_sOH2+        7.040e-010       0.001  7.040e-010      -9.152
	Hfo_sOHCa+2      7.855e-014       0.000  7.855e-014     -13.105

Hfo_w         
	 3.066e-005  moles
	                                   Mole                     Log
	Species               Moles    Fraction    Molality    Molality

	Hfo_wOH          1.802e-005       0.588  1.802e-005      -4.744
	Hfo_wO-          6.593e-006       0.215  6.593e-006      -5.181
	Hfo_wOUO2+       4.913e-006       0.160  4.913e-006      -5.309
	Hfo_wOH2+        1.128e-006       0.037  1.128e-006      -5.948
	Hfo_wOCa+        5.934e-013       0.000  5.934e-013     -12.227

Sfo           
	-8.341e-024  Surface + diffuse layer charge, eq
	-1.809e-025  Surface charge, eq
	undefined  sigma, C/m**2
	 1.292e-001  psi, V
	-5.028e+000  -F*psi/RT
	 6.550e-003  exp(-F*psi/RT)
	 6.000e+002  specific area, m**2/g
	 0.000e+000  m**2 for  0.000e+000 g

	Water in diffuse layer: 0.000e+000 kg,  0.0% of total DDL-water.

	Total moles in diffuse layer (excluding water), Donnan calculation 

	Element       	     Moles
	Ca            	 1.6670e-019
	Cl            	 1.0021e-015
	H             	 1.1327e-018
	Na            	 1.0015e-015
	O             	 6.7594e-016
	U             	 5.5171e-019

Sfo_s         
	 1.488e-025  moles
	                                   Mole                     Log
	Species               Moles    Fraction    Molality    Molality

	Sfo_sO-          8.107e-026       0.000  8.107e-026     -25.091
	Sfo_sOH          6.849e-026       0.000  6.849e-026     -25.164
	Sfo_sOH2+        1.326e-027       0.000  1.326e-027     -26.878
	Sfo_sOHCa+2      4.572e-032       0.000  4.572e-032     -31.340
	Sfo_sOHUO2+2     1.439e-033       0.000  1.439e-033     -32.842

Sfo_w         
	 1.636e-025  moles
	                                   Mole                     Log
	Species               Moles    Fraction    Molality    Molality

	Sfo_wO-          1.109e-025       0.000  1.109e-025     -24.955
	Sfo_wOH          9.369e-026       0.000  9.369e-026     -25.028
	Sfo_wOUO2+       7.895e-027       0.000  7.895e-027     -26.103
	Sfo_wOH2+        1.813e-027       0.000  1.813e-027     -26.742
	Sfo_wOCa+        9.536e-034       0.000  9.536e-034     -33.021

