   Input file: spread_solution
  Output file: spread_solution.out
Database file: ../database/phreeqc.dat

------------------
Reading data base.
------------------

	SOLUTION_MASTER_SPECIES
	SOLUTION_SPECIES
	PHASES
	EXCHANGE_MASTER_SPECIES
	EXCHANGE_SPECIES
	SURFACE_MASTER_SPECIES
	SURFACE_SPECIES
	RATES
	END
------------------------------------
Reading input data for simulation 1.
------------------------------------

	DATABASE ../database/phreeqc.dat
	SOLUTION 51
	SOLUTION_S
	temp	25
	dens	1
	units	mmol/kgw
	redox 	pe
	pe	4
	ph	7
	isotope_uncertainty 13C 1
	water	1.0
	Number	temp	13C	pH	Ca	Mg	Na	K	S(6)	Cl	Alkalinity	description
											mg/kgw as HCO3
	10-11	20	10		1	1	1	1	2	1	61          	soln 10-11
	ph	6
	1	15	20		1	1	1	1	2	1	61          	soln 1
		15	20		1	1	1	1	2	1	61          	soln 1
	END
-------------------------------------------
Beginning of initial solution calculations.
-------------------------------------------

Initial solution 1.	 soln 1 

-----------------------------Solution composition------------------------------

	Elements           Molality       Moles

	Alkalinity       9.997e-004  9.997e-004
	Ca               1.000e-003  1.000e-003
	Cl               1.000e-003  1.000e-003
	K                1.000e-003  1.000e-003
	Mg               1.000e-003  1.000e-003
	Na               1.000e-003  1.000e-003
	S(6)             2.000e-003  2.000e-003

----------------------------Description of solution----------------------------

                                       pH  =   6.000    
                                       pe  =   4.000    
       Specific Conductance (uS/cm, 25 oC) = 633
                          Density (g/cm3)  =   0.99948
                        Activity of water  =   1.000
                           Ionic strength  =  8.929e-003
                       Mass of water (kg)  =  1.000e+000
                    Total carbon (mol/kg)  =  3.355e-003
                       Total CO2 (mol/kg)  =  3.355e-003
                      Temperature (deg C)  =  15.000
                  Electrical balance (eq)  =  3.130e-007
 Percent error, 100*(Cat-|An|)/(Cat+|An|)  =   0.00
                               Iterations  =   8
                                  Total H  = 1.110134e+002
                                  Total O  = 5.552193e+001

----------------------------Distribution of species----------------------------

                                                   Log       Log         Log 
   Species                 Molality    Activity  Molality  Activity     Gamma

   H+                    1.089e-006  1.000e-006    -5.963    -6.000    -0.037
   OH-                   4.973e-009  4.507e-009    -8.303    -8.346    -0.043
   H2O                   5.551e+001  9.998e-001     1.744    -0.000     0.000
C(4)            3.355e-003
   CO2                   2.354e-003  2.359e-003    -2.628    -2.627     0.001
   HCO3-                 9.873e-004  8.992e-004    -3.006    -3.046    -0.041
   MgHCO3+               6.710e-006  6.092e-006    -5.173    -5.215    -0.042
   CaHCO3+               6.207e-006  5.653e-006    -5.207    -5.248    -0.041
   NaHCO3                4.559e-007  4.568e-007    -6.341    -6.340     0.001
   CO3-2                 4.873e-008  3.353e-008    -7.312    -7.475    -0.162
   CaCO3                 2.850e-008  2.856e-008    -7.545    -7.544     0.001
   MgCO3                 1.640e-008  1.643e-008    -7.785    -7.784     0.001
   NaCO3-                3.687e-010  3.347e-010    -9.433    -9.475    -0.042
Ca              1.000e-003
   Ca+2                  8.660e-004  5.955e-004    -3.062    -3.225    -0.163
   CaSO4                 1.277e-004  1.280e-004    -3.894    -3.893     0.001
   CaHCO3+               6.207e-006  5.653e-006    -5.207    -5.248    -0.041
   CaCO3                 2.850e-008  2.856e-008    -7.545    -7.544     0.001
   CaHSO4+               7.381e-010  6.701e-010    -9.132    -9.174    -0.042
   CaOH+                 1.088e-010  9.882e-011    -9.963   -10.005    -0.042
Cl              1.000e-003
   Cl-                   1.000e-003  9.066e-004    -3.000    -3.043    -0.043
H(0)            1.566e-023
   H2                    7.832e-024  7.848e-024   -23.106   -23.105     0.001
K               1.000e-003
   K+                    9.931e-004  9.003e-004    -3.003    -3.046    -0.043
   KSO4-                 6.900e-006  6.265e-006    -5.161    -5.203    -0.042
   KOH                   3.115e-012  3.121e-012   -11.507   -11.506     0.001
Mg              1.000e-003
   Mg+2                  8.660e-004  5.989e-004    -3.063    -3.223    -0.160
   MgSO4                 1.273e-004  1.276e-004    -3.895    -3.894     0.001
   MgHCO3+               6.710e-006  6.092e-006    -5.173    -5.215    -0.042
   MgCO3                 1.640e-008  1.643e-008    -7.785    -7.784     0.001
   MgOH+                 9.406e-010  8.541e-010    -9.027    -9.069    -0.042
Na              1.000e-003
   Na+                   9.940e-004  9.035e-004    -3.003    -3.044    -0.041
   NaSO4-                5.540e-006  5.030e-006    -5.256    -5.298    -0.042
   NaHCO3                4.559e-007  4.568e-007    -6.341    -6.340     0.001
   NaCO3-                3.687e-010  3.347e-010    -9.433    -9.475    -0.042
   NaOH                  5.956e-012  5.968e-012   -11.225   -11.224     0.001
O(0)            0.000e+000
   O2                    0.000e+000  0.000e+000   -49.510   -49.509     0.001
S(6)            2.000e-003
   SO4-2                 1.732e-003  1.186e-003    -2.761    -2.926    -0.164
   CaSO4                 1.277e-004  1.280e-004    -3.894    -3.893     0.001
   MgSO4                 1.273e-004  1.276e-004    -3.895    -3.894     0.001
   KSO4-                 6.900e-006  6.265e-006    -5.161    -5.203    -0.042
   NaSO4-                5.540e-006  5.030e-006    -5.256    -5.298    -0.042
   HSO4-                 1.031e-007  9.359e-008    -6.987    -7.029    -0.042
   CaHSO4+               7.381e-010  6.701e-010    -9.132    -9.174    -0.042

------------------------------Saturation indices-------------------------------

	Phase               SI log IAP  log KT

	Anhydrite        -1.82   -6.15   -4.34  CaSO4
	Aragonite        -2.42  -10.70   -8.28  CaCO3
	Calcite          -2.27  -10.70   -8.43  CaCO3
	CO2(g)           -1.29   -2.63   -1.34  CO2
	Dolomite         -4.55  -21.40  -16.85  CaMg(CO3)2
	Gypsum           -1.57   -6.15   -4.58  CaSO4:2H2O
	H2(g)           -20.00  -23.11   -3.11  H2
	H2O(g)           -1.78   -0.00    1.78  H2O
	Halite           -7.65   -6.09    1.56  NaCl
	O2(g)           -46.70  -49.51   -2.81  O2

Initial solution 10.	 soln 10-11 

-----------------------------Solution composition------------------------------

	Elements           Molality       Moles

	Alkalinity       9.997e-004  9.997e-004
	Ca               1.000e-003  1.000e-003
	Cl               1.000e-003  1.000e-003
	K                1.000e-003  1.000e-003
	Mg               1.000e-003  1.000e-003
	Na               1.000e-003  1.000e-003
	S(6)             2.000e-003  2.000e-003

----------------------------Description of solution----------------------------

                                       pH  =   7.000    
                                       pe  =   4.000    
       Specific Conductance (uS/cm, 25 oC) = 628
                          Density (g/cm3)  =   0.99858
                        Activity of water  =   1.000
                           Ionic strength  =  8.853e-003
                       Mass of water (kg)  =  1.000e+000
                    Total carbon (mol/kg)  =  1.214e-003
                       Total CO2 (mol/kg)  =  1.214e-003
                      Temperature (deg C)  =  20.000
                  Electrical balance (eq)  =  3.130e-007
 Percent error, 100*(Cat-|An|)/(Cat+|An|)  =   0.00
                               Iterations  =   7
                                  Total H  = 1.110134e+002
                                  Total O  = 5.551764e+001

----------------------------Distribution of species----------------------------

                                                   Log       Log         Log 
   Species                 Molality    Activity  Molality  Activity     Gamma

   H+                    1.089e-007  1.000e-007    -6.963    -7.000    -0.037
   OH-                   7.493e-008  6.788e-008    -7.125    -7.168    -0.043
   H2O                   5.551e+001  9.999e-001     1.744    -0.000     0.000
C(4)            1.214e-003
   HCO3-                 9.836e-004  8.955e-004    -3.007    -3.048    -0.041
   CO2                   2.153e-004  2.158e-004    -3.667    -3.666     0.001
   CaHCO3+               6.817e-006  6.207e-006    -5.166    -5.207    -0.041
   MgHCO3+               6.658e-006  6.043e-006    -5.177    -5.219    -0.042
   CO3-2                 5.489e-007  3.771e-007    -6.261    -6.423    -0.163
   NaHCO3                4.538e-007  4.547e-007    -6.343    -6.342     0.001
   CaCO3                 3.414e-007  3.421e-007    -6.467    -6.466     0.001
   MgCO3                 1.956e-007  1.960e-007    -6.709    -6.708     0.001
   NaCO3-                5.406e-009  4.907e-009    -8.267    -8.309    -0.042
Ca              1.000e-003
   Ca+2                  8.612e-004  5.914e-004    -3.065    -3.228    -0.163
   CaSO4                 1.316e-004  1.319e-004    -3.881    -3.880     0.001
   CaHCO3+               6.817e-006  6.207e-006    -5.166    -5.207    -0.041
   CaCO3                 3.414e-007  3.421e-007    -6.467    -6.466     0.001
   CaOH+                 1.081e-009  9.813e-010    -8.966    -9.008    -0.042
   CaHSO4+               8.021e-011  7.280e-011   -10.096   -10.138    -0.042
Cl              1.000e-003
   Cl-                   1.000e-003  9.062e-004    -3.000    -3.043    -0.043
H(0)            1.486e-025
   H2                    7.432e-026  7.447e-026   -25.129   -25.128     0.001
K               1.000e-003
   K+                    9.925e-004  8.995e-004    -3.003    -3.046    -0.043
   KSO4-                 7.467e-006  6.777e-006    -5.127    -5.169    -0.042
   KOH                   3.112e-011  3.118e-011   -10.507   -10.506     0.001
Mg              1.000e-003
   Mg+2                  8.517e-004  5.882e-004    -3.070    -3.231    -0.161
   MgSO4                 1.415e-004  1.417e-004    -3.849    -3.848     0.001
   MgHCO3+               6.658e-006  6.043e-006    -5.177    -5.219    -0.042
   MgCO3                 1.956e-007  1.960e-007    -6.709    -6.708     0.001
   MgOH+                 1.486e-008  1.349e-008    -7.828    -7.870    -0.042
Na              1.000e-003
   Na+                   9.939e-004  9.030e-004    -3.003    -3.044    -0.042
   NaSO4-                5.658e-006  5.135e-006    -5.247    -5.289    -0.042
   NaHCO3                4.538e-007  4.547e-007    -6.343    -6.342     0.001
   NaCO3-                5.406e-009  4.907e-009    -8.267    -8.309    -0.042
   NaOH                  5.953e-011  5.965e-011   -10.225   -10.224     0.001
O(0)            0.000e+000
   O2                    0.000e+000  0.000e+000   -43.766   -43.765     0.001
S(6)            2.000e-003
   SO4-2                 1.714e-003  1.172e-003    -2.766    -2.931    -0.165
   MgSO4                 1.415e-004  1.417e-004    -3.849    -3.848     0.001
   CaSO4                 1.316e-004  1.319e-004    -3.881    -3.880     0.001
   KSO4-                 7.467e-006  6.777e-006    -5.127    -5.169    -0.042
   NaSO4-                5.658e-006  5.135e-006    -5.247    -5.289    -0.042
   HSO4-                 1.128e-008  1.024e-008    -7.948    -7.990    -0.042
   CaHSO4+               8.021e-011  7.280e-011   -10.096   -10.138    -0.042

------------------------------Saturation indices-------------------------------

	Phase               SI log IAP  log KT

	Anhydrite        -1.82   -6.16   -4.34  CaSO4
	Aragonite        -1.35   -9.65   -8.31  CaCO3
	Calcite          -1.20   -9.65   -8.45  CaCO3
	CO2(g)           -2.26   -3.67   -1.41  CO2
	Dolomite         -2.33  -19.31  -16.97  CaMg(CO3)2
	Gypsum           -1.58   -6.16   -4.58  CaSO4:2H2O
	H2(g)           -22.00  -25.13   -3.13  H2
	H2O(g)           -1.64   -0.00    1.64  H2O
	Halite           -7.66   -6.09    1.57  NaCl
	O2(g)           -40.91  -43.77   -2.85  O2

Initial solution 51.	

-----------------------------Solution composition------------------------------

	Elements           Molality       Moles

	Pure water     

----------------------------Description of solution----------------------------

                                       pH  =   7.000    
                                       pe  =   4.000    
       Specific Conductance (uS/cm, 25 oC) = 0
                          Density (g/cm3)  =   0.99705
                        Activity of water  =   1.000
                           Ionic strength  =  1.001e-007
                       Mass of water (kg)  =  1.000e+000
                 Total alkalinity (eq/kg)  =  1.082e-010
                    Total carbon (mol/kg)  =  0.000e+000
                       Total CO2 (mol/kg)  =  0.000e+000
                      Temperature (deg C)  =  25.000
                  Electrical balance (eq)  = -1.082e-010
 Percent error, 100*(Cat-|An|)/(Cat+|An|)  =  -0.05
                               Iterations  =   0
                                  Total H  = 1.110124e+002
                                  Total O  = 5.550622e+001

----------------------------Distribution of species----------------------------

                                                   Log       Log         Log 
   Species                 Molality    Activity  Molality  Activity     Gamma

   OH-                   1.002e-007  1.001e-007    -6.999    -6.999    -0.000
   H+                    1.001e-007  1.000e-007    -7.000    -7.000    -0.000
   H2O                   5.551e+001  1.000e+000     1.744     0.000     0.000
H(0)            1.416e-025
   H2                    7.079e-026  7.079e-026   -25.150   -25.150     0.000
O(0)            0.000e+000
   O2                    0.000e+000  0.000e+000   -42.080   -42.080     0.000

------------------------------Saturation indices-------------------------------

	Phase               SI log IAP  log KT

	H2(g)           -22.00  -25.15   -3.15  H2
	H2O(g)           -1.51    0.00    1.51  H2O
	O2(g)           -39.19  -42.08   -2.89  O2

Initial solution 52.	 soln 1 

-----------------------------Solution composition------------------------------

	Elements           Molality       Moles

	Alkalinity       9.997e-004  9.997e-004
	Ca               1.000e-003  1.000e-003
	Cl               1.000e-003  1.000e-003
	K                1.000e-003  1.000e-003
	Mg               1.000e-003  1.000e-003
	Na               1.000e-003  1.000e-003
	S(6)             2.000e-003  2.000e-003

----------------------------Description of solution----------------------------

                                       pH  =   6.000    
                                       pe  =   4.000    
       Specific Conductance (uS/cm, 25 oC) = 633
                          Density (g/cm3)  =   0.99948
                        Activity of water  =   1.000
                           Ionic strength  =  8.929e-003
                       Mass of water (kg)  =  1.000e+000
                    Total carbon (mol/kg)  =  3.355e-003
                       Total CO2 (mol/kg)  =  3.355e-003
                      Temperature (deg C)  =  15.000
                  Electrical balance (eq)  =  3.130e-007
 Percent error, 100*(Cat-|An|)/(Cat+|An|)  =   0.00
                               Iterations  =   8
                                  Total H  = 1.110134e+002
                                  Total O  = 5.552193e+001

----------------------------Distribution of species----------------------------

                                                   Log       Log         Log 
   Species                 Molality    Activity  Molality  Activity     Gamma

   H+                    1.089e-006  1.000e-006    -5.963    -6.000    -0.037
   OH-                   4.973e-009  4.507e-009    -8.303    -8.346    -0.043
   H2O                   5.551e+001  9.998e-001     1.744    -0.000     0.000
C(4)            3.355e-003
   CO2                   2.354e-003  2.359e-003    -2.628    -2.627     0.001
   HCO3-                 9.873e-004  8.992e-004    -3.006    -3.046    -0.041
   MgHCO3+               6.710e-006  6.092e-006    -5.173    -5.215    -0.042
   CaHCO3+               6.207e-006  5.653e-006    -5.207    -5.248    -0.041
   NaHCO3                4.559e-007  4.568e-007    -6.341    -6.340     0.001
   CO3-2                 4.873e-008  3.353e-008    -7.312    -7.475    -0.162
   CaCO3                 2.850e-008  2.856e-008    -7.545    -7.544     0.001
   MgCO3                 1.640e-008  1.643e-008    -7.785    -7.784     0.001
   NaCO3-                3.687e-010  3.347e-010    -9.433    -9.475    -0.042
Ca              1.000e-003
   Ca+2                  8.660e-004  5.955e-004    -3.062    -3.225    -0.163
   CaSO4                 1.277e-004  1.280e-004    -3.894    -3.893     0.001
   CaHCO3+               6.207e-006  5.653e-006    -5.207    -5.248    -0.041
   CaCO3                 2.850e-008  2.856e-008    -7.545    -7.544     0.001
   CaHSO4+               7.381e-010  6.701e-010    -9.132    -9.174    -0.042
   CaOH+                 1.088e-010  9.882e-011    -9.963   -10.005    -0.042
Cl              1.000e-003
   Cl-                   1.000e-003  9.066e-004    -3.000    -3.043    -0.043
H(0)            1.566e-023
   H2                    7.832e-024  7.848e-024   -23.106   -23.105     0.001
K               1.000e-003
   K+                    9.931e-004  9.003e-004    -3.003    -3.046    -0.043
   KSO4-                 6.900e-006  6.265e-006    -5.161    -5.203    -0.042
   KOH                   3.115e-012  3.121e-012   -11.507   -11.506     0.001
Mg              1.000e-003
   Mg+2                  8.660e-004  5.989e-004    -3.063    -3.223    -0.160
   MgSO4                 1.273e-004  1.276e-004    -3.895    -3.894     0.001
   MgHCO3+               6.710e-006  6.092e-006    -5.173    -5.215    -0.042
   MgCO3                 1.640e-008  1.643e-008    -7.785    -7.784     0.001
   MgOH+                 9.406e-010  8.541e-010    -9.027    -9.069    -0.042
Na              1.000e-003
   Na+                   9.940e-004  9.035e-004    -3.003    -3.044    -0.041
   NaSO4-                5.540e-006  5.030e-006    -5.256    -5.298    -0.042
   NaHCO3                4.559e-007  4.568e-007    -6.341    -6.340     0.001
   NaCO3-                3.687e-010  3.347e-010    -9.433    -9.475    -0.042
   NaOH                  5.956e-012  5.968e-012   -11.225   -11.224     0.001
O(0)            0.000e+000
   O2                    0.000e+000  0.000e+000   -49.510   -49.509     0.001
S(6)            2.000e-003
   SO4-2                 1.732e-003  1.186e-003    -2.761    -2.926    -0.164
   CaSO4                 1.277e-004  1.280e-004    -3.894    -3.893     0.001
   MgSO4                 1.273e-004  1.276e-004    -3.895    -3.894     0.001
   KSO4-                 6.900e-006  6.265e-006    -5.161    -5.203    -0.042
   NaSO4-                5.540e-006  5.030e-006    -5.256    -5.298    -0.042
   HSO4-                 1.031e-007  9.359e-008    -6.987    -7.029    -0.042
   CaHSO4+               7.381e-010  6.701e-010    -9.132    -9.174    -0.042

------------------------------Saturation indices-------------------------------

	Phase               SI log IAP  log KT

	Anhydrite        -1.82   -6.15   -4.34  CaSO4
	Aragonite        -2.42  -10.70   -8.28  CaCO3
	Calcite          -2.27  -10.70   -8.43  CaCO3
	CO2(g)           -1.29   -2.63   -1.34  CO2
	Dolomite         -4.55  -21.40  -16.85  CaMg(CO3)2
	Gypsum           -1.57   -6.15   -4.58  CaSO4:2H2O
	H2(g)           -20.00  -23.11   -3.11  H2
	H2O(g)           -1.78   -0.00    1.78  H2O
	Halite           -7.65   -6.09    1.56  NaCl
	O2(g)           -46.70  -49.51   -2.81  O2

------------------
End of simulation.
------------------

------------------------------------
Reading input data for simulation 2.
------------------------------------

-----------
End of run.
-----------

