   Input file: ss_r
  Output file: ss_r.out
Database file: ../database/phreeqc.dat

------------------
Reading data base.
------------------

	SOLUTION_MASTER_SPECIES
	SOLUTION_SPECIES
	PHASES
	EXCHANGE_MASTER_SPECIES
	EXCHANGE_SPECIES
	SURFACE_MASTER_SPECIES
	SURFACE_SPECIES
	RATES
	END
------------------------------------
Reading input data for simulation 1.
------------------------------------

	DATABASE ../database/phreeqc.dat
	KNOBS
	tolerance 1e-14
	diagonal_scale true
	SOLUTION_SPECIES
	 H2O + 0.01e- = H2O-0.01
	 log_k -9.0
	RATES
	 CO2_escape
	 10 P_CO2 = SI("CO2(g)")
	 12 if P_CO2 < -3.4999 then goto 30
	 20 rate = (P_CO2 + 3.5)/3600/5e3
	 30 save rate * time
	SOLUTION 1-11
	 pH 7.0 CO2(g) -3.5
	 pe 14 O2(g) -1.0
	 Ca 1.5 Calcite
	 Zn 1.5e-9
	 C(4) 1.0 charge
	SOLUTION 0
	pH 7.0 Calcite 0.0
	pe 14 O2(g) -1.0
	Ca 1.5
	Zn 1.5e-3
	C(4) 1.0 charge
	END
-------------------------------------------
Beginning of initial solution calculations.
-------------------------------------------

Initial solution 0.	

-----------------------------Solution composition------------------------------

	Elements           Molality       Moles

	C(4)             3.256e-003  3.256e-003  Charge balance
	Ca               1.500e-003  1.500e-003
	Zn               1.500e-006  1.500e-006

----------------------------Description of solution----------------------------

                                       pH  =   7.370      Equilibrium with Calcite
                                       pe  =  13.177      Equilibrium with O2(g)
       Specific Conductance (uS/cm, 25 oC) = 280
                          Density (g/cm3)  =   0.99725
                        Activity of water  =   1.000
                           Ionic strength  =  4.408e-003
                       Mass of water (kg)  =  1.000e+000
                 Total alkalinity (eq/kg)  =  3.003e-003
                       Total CO2 (mol/kg)  =  3.256e-003
                      Temperature (deg C)  =  25.000
                  Electrical balance (eq)  = -5.592e-012
 Percent error, 100*(Cat-|An|)/(Cat+|An|)  =  -0.00
                               Iterations  =   6
                                  Total H  = 1.110154e+002
                                  Total O  = 5.551598e+001

----------------------------Distribution of species----------------------------

                                                   Log       Log         Log 
   Species                 Molality    Activity  Molality  Activity     Gamma

   OH-                   2.521e-007  2.345e-007    -6.599    -6.630    -0.031
   H+                    4.556e-008  4.269e-008    -7.341    -7.370    -0.028
   H2O-0.01              7.382e-010  7.382e-010    -9.132    -9.132    -0.000
   H2O                   5.551e+001  9.999e-001     1.744    -0.000     0.000
C(4)            3.256e-003
   HCO3-                 2.941e-003  2.743e-003    -2.531    -2.562    -0.030
   CO2                   2.631e-004  2.634e-004    -3.580    -3.579     0.000
   CaHCO3+               4.125e-005  3.847e-005    -4.385    -4.415    -0.030
   CaCO3                 5.559e-006  5.565e-006    -5.255    -5.255     0.000
   CO3-2                 3.982e-006  3.014e-006    -5.400    -5.521    -0.121
   ZnCO3                 3.783e-007  3.787e-007    -6.422    -6.422     0.000
   ZnHCO3+               2.336e-007  2.175e-007    -6.632    -6.663    -0.031
   Zn(CO3)2-2            3.247e-008  2.440e-008    -7.489    -7.613    -0.124
Ca              1.500e-003
   Ca+2                  1.453e-003  1.099e-003    -2.838    -2.959    -0.121
   CaHCO3+               4.125e-005  3.847e-005    -4.385    -4.415    -0.030
   CaCO3                 5.559e-006  5.565e-006    -5.255    -5.255     0.000
   CaOH+                 4.589e-009  4.273e-009    -8.338    -8.369    -0.031
H(0)            0.000e+000
   H2                    0.000e+000  0.000e+000   -44.244   -44.244     0.000
O(0)            2.560e-004
   O2                    1.280e-004  1.281e-004    -3.893    -3.892     0.000
Zn              1.500e-006
   Zn+2                  8.339e-007  6.298e-007    -6.079    -6.201    -0.122
   ZnCO3                 3.783e-007  3.787e-007    -6.422    -6.422     0.000
   ZnHCO3+               2.336e-007  2.175e-007    -6.632    -6.663    -0.031
   Zn(CO3)2-2            3.247e-008  2.440e-008    -7.489    -7.613    -0.124
   ZnOH+                 1.737e-008  1.617e-008    -7.760    -7.791    -0.031
   Zn(OH)2               4.345e-009  4.349e-009    -8.362    -8.362     0.000
   Zn(OH)3-              3.460e-013  3.221e-013   -12.461   -12.492    -0.031
   Zn(OH)4-2             1.591e-018  1.196e-018   -17.798   -17.922    -0.124

------------------------------Saturation indices-------------------------------

	Phase               SI log IAP  log KT

	Aragonite        -0.14   -8.48   -8.34  CaCO3
	Calcite           0.00   -8.48   -8.48  CaCO3
	CO2(g)           -2.11   -3.58   -1.47  CO2
	H2(g)           -41.09  -44.24   -3.15  H2
	H2O(g)           -1.51   -0.00    1.51  H2O
	O2(g)            -1.00   -3.89   -2.89  O2
	Smithsonite      -1.72  -11.72  -10.00  ZnCO3
	Zn(OH)2(e)       -2.96    8.54   11.50  Zn(OH)2

Initial solution 1.	

-----------------------------Solution composition------------------------------

	Elements           Molality       Moles

	C(4)             9.803e-004  9.803e-004  Charge balance
	Ca               4.934e-004  4.934e-004  Equilibrium with Calcite
	Zn               1.500e-012  1.500e-012

----------------------------Description of solution----------------------------

                                       pH  =   8.279      Equilibrium with CO2(g)
                                       pe  =  12.268      Equilibrium with O2(g)
       Specific Conductance (uS/cm, 25 oC) = 96
                          Density (g/cm3)  =   0.99711
                        Activity of water  =   1.000
                           Ionic strength  =  1.463e-003
                       Mass of water (kg)  =  1.000e+000
                 Total alkalinity (eq/kg)  =  9.867e-004
                       Total CO2 (mol/kg)  =  9.803e-004
                      Temperature (deg C)  =  25.000
                  Electrical balance (eq)  = -8.964e-016
 Percent error, 100*(Cat-|An|)/(Cat+|An|)  =  -0.00
                               Iterations  =   6
                                  Total H  = 1.110134e+002
                                  Total O  = 5.550941e+001

----------------------------Distribution of species----------------------------

                                                   Log       Log         Log 
   Species                 Molality    Activity  Molality  Activity     Gamma

   OH-                   1.987e-006  1.903e-006    -5.702    -5.720    -0.019
   H+                    5.476e-009  5.260e-009    -8.262    -8.279    -0.018
   H2O-0.01              7.539e-010  7.539e-010    -9.123    -9.123    -0.000
   H2O                   5.551e+001  1.000e+000     1.744    -0.000     0.000
C(4)            9.803e-004
   HCO3-                 9.495e-004  9.104e-004    -3.023    -3.041    -0.018
   CO2                   1.076e-005  1.077e-005    -4.968    -4.968     0.000
   CO3-2                 9.603e-006  8.118e-006    -5.018    -5.091    -0.073
   CaCO3                 5.563e-006  5.565e-006    -5.255    -5.255     0.000
   CaHCO3+               4.943e-006  4.740e-006    -5.306    -5.324    -0.018
   ZnCO3                 6.182e-013  6.184e-013   -12.209   -12.209     0.000
   Zn(CO3)2-2            1.273e-013  1.073e-013   -12.895   -12.969    -0.074
   ZnHCO3+               4.567e-014  4.376e-014   -13.340   -13.359    -0.019
Ca              4.934e-004
   Ca+2                  4.829e-004  4.081e-004    -3.316    -3.389    -0.073
   CaCO3                 5.563e-006  5.565e-006    -5.255    -5.255     0.000
   CaHCO3+               4.943e-006  4.740e-006    -5.306    -5.324    -0.018
   CaOH+                 1.344e-008  1.288e-008    -7.872    -7.890    -0.019
H(0)            0.000e+000
   H2                    0.000e+000  0.000e+000   -44.244   -44.244     0.000
O(0)            2.562e-004
   O2                    1.281e-004  1.281e-004    -3.893    -3.892     0.000
Zn              1.500e-012
   ZnCO3                 6.182e-013  6.184e-013   -12.209   -12.209     0.000
   Zn+2                  4.520e-013  3.818e-013   -12.345   -12.418    -0.073
   Zn(OH)2               1.737e-013  1.737e-013   -12.760   -12.760     0.000
   Zn(CO3)2-2            1.273e-013  1.073e-013   -12.895   -12.969    -0.074
   ZnOH+                 8.306e-014  7.959e-014   -13.081   -13.099    -0.019
   ZnHCO3+               4.567e-014  4.376e-014   -13.340   -13.359    -0.019
   Zn(OH)3-              1.090e-016  1.045e-016   -15.963   -15.981    -0.019
   Zn(OH)4-2             3.734e-021  3.148e-021   -20.428   -20.502    -0.074

------------------------------Saturation indices-------------------------------

	Phase               SI log IAP  log KT

	Aragonite        -0.14   -8.48   -8.34  CaCO3
	Calcite           0.00   -8.48   -8.48  CaCO3
	CO2(g)           -3.50   -4.97   -1.47  CO2
	H2(g)           -41.09  -44.24   -3.15  H2
	H2O(g)           -1.51   -0.00    1.51  H2O
	O2(g)            -1.00   -3.89   -2.89  O2
	Smithsonite      -7.51  -17.51  -10.00  ZnCO3
	Zn(OH)2(e)       -7.36    4.14   11.50  Zn(OH)2

------------------
End of simulation.
------------------

------------------------------------
Reading input data for simulation 2.
------------------------------------

	KINETICS 1-10
	 CO2_escape
	 formula CO2 -1 
	SOLID_SOLUTION 1-10
	 CaZnCO3
	 comp1 Calcite 0
	 comp2 Smithsonite 0
	 gugg_nondimensional 4
	EQUILIBRIUM_PHASES 1-10
	 Halite -19 #4e-8
	END
-------------------------------------
Description of Solid Solution CaZnCO3
-------------------------------------

	                              Temperature: 298.15 kelvin
	                       A0 (dimensionless): 4
	                       A1 (dimensionless): 0
	                              A0 (kJ/mol): 9.91611
	                              A1 (kJ/mol): 0

	    Critical mole-fraction of component 2: 0.5
	                     Critical temperature: 596.3 kelvin

(The critical temperature calculation assumes that the Guggenheim model
defined at 298.15 kelvin is valid at the critical temperature.)


	 Spinodal-gap mole fractions, component 2: 0.146447	0.853553
	   Miscibility-gap fractions, component 2: 0.021248	0.978752

			Eutectic Point Calculations

	     Aqueous activity ratio (comp2/comp1): 0.0301877
	 Log aqueous activity ratio (comp2/comp1): -1.52017
	 Aqueous activity fraction of component 2: 0.0293031
	                    Log IAP (component 2): -10.0085
	                    Log IAP (component 1): -8.48837
	                               Log Sum Pi: -8.47546

Local minimum in the solidus curve coresponding to a maximum
in the minimum stoichiometric saturation curve.

	       Solid mole fraction of component 2: 0.0624599
	                    Log IAP (component 2): -9.67745
	                    Log IAP (component 1): -8.50106
	                               Log Sum Pi: -8.47305
------------------
End of simulation.
------------------

------------------------------------
Reading input data for simulation 3.
------------------------------------

	SELECTED_OUTPUT
	TRANSPORT
	 cells 10
	 shifts 10
	 timest 3600
	 diffc 0
	 punch_frequency 5
	USER_GRAPH
WARNING: No cell-lengths were read; length = 1 m assumed.
WARNING: No dispersivities were read; disp = 0 assumed.
	 -plot x
	 -initial_solutions false
	 -head x Ca Zn SI_cc
	 10 graph_x dist
	 20 graph_y tot("Ca")*1e3, tot("Zn")*1e6 #, SI("Calcite")
	END
------------------------------------
Beginning of transport calculations.
------------------------------------

-------------------------------
Equilibrating initial solutions
-------------------------------

Using solution 1.	
Using pure phase assemblage 1.	
Using solid solution assemblage 1.	

-------------------------------Phase assemblage--------------------------------

                                                      Moles in assemblage
Phase                  SI log IAP  log KT      Initial       Final       Delta

Halite             -19.00  -17.42    1.58   1.000e+001  1.000e+001 -2.040e-009

--------------------------------Solid solutions--------------------------------


Solid solution                Component        Moles  Delta moles   Mole fract

CaZnCO3                                    0.00e+000
                                Calcite    0.00e+000    1.00e-014    0.00e+000
                            Smithsonite    0.00e+000    1.02e-022    0.00e+000

-----------------------------Solution composition------------------------------

	Elements           Molality       Moles

	C                9.803e-004  9.803e-004
	Ca               4.934e-004  4.934e-004
	Cl               2.040e-009  2.040e-009
	Na               2.040e-009  2.040e-009
	Zn               1.500e-012  1.500e-012

----------------------------Description of solution----------------------------

                                       pH  =   8.279      Charge balance
                                       pe  =  12.268      Adjusted to redox equilibrium
       Specific Conductance (uS/cm, 25 oC) = 96
                          Density (g/cm3)  =   0.99711
                        Activity of water  =   1.000
                           Ionic strength  =  1.463e-003
                       Mass of water (kg)  =  1.000e+000
                 Total alkalinity (eq/kg)  =  9.867e-004
                       Total CO2 (mol/kg)  =  9.803e-004
                      Temperature (deg C)  =  25.000
                  Electrical balance (eq)  = -8.957e-016
 Percent error, 100*(Cat-|An|)/(Cat+|An|)  =  -0.00
                               Iterations  =  16
                                  Total H  = 1.110134e+002
                                  Total O  = 5.550941e+001

----------------------------Distribution of species----------------------------

                                                   Log       Log         Log 
   Species                 Molality    Activity  Molality  Activity     Gamma

   OH-                   1.987e-006  1.903e-006    -5.702    -5.720    -0.019
   H+                    5.476e-009  5.260e-009    -8.262    -8.279    -0.018
   H2O-0.01              7.539e-010  7.539e-010    -9.123    -9.123    -0.000
   H2O                   5.551e+001  1.000e+000     1.744    -0.000     0.000
C(-4)           0.000e+000
   CH4                   0.000e+000  0.000e+000  -144.953  -144.953     0.000
C(4)            9.803e-004
   HCO3-                 9.495e-004  9.104e-004    -3.023    -3.041    -0.018
   CO2                   1.076e-005  1.077e-005    -4.968    -4.968     0.000
   CO3-2                 9.603e-006  8.118e-006    -5.018    -5.091    -0.073
   CaCO3                 5.563e-006  5.565e-006    -5.255    -5.255     0.000
   CaHCO3+               4.943e-006  4.740e-006    -5.306    -5.324    -0.018
   NaHCO3                1.000e-012  1.000e-012   -12.000   -12.000     0.000
   ZnCO3                 6.182e-013  6.184e-013   -12.209   -12.209     0.000
   NaCO3-                3.083e-013  2.954e-013   -12.511   -12.530    -0.019
   Zn(CO3)2-2            1.273e-013  1.073e-013   -12.895   -12.969    -0.074
   ZnHCO3+               4.567e-014  4.376e-014   -13.340   -13.359    -0.019
Ca              4.934e-004
   Ca+2                  4.829e-004  4.081e-004    -3.316    -3.389    -0.073
   CaCO3                 5.563e-006  5.565e-006    -5.255    -5.255     0.000
   CaHCO3+               4.943e-006  4.740e-006    -5.306    -5.324    -0.018
   CaOH+                 1.344e-008  1.288e-008    -7.872    -7.890    -0.019
Cl              2.040e-009
   Cl-                   2.040e-009  1.955e-009    -8.690    -8.709    -0.019
   ZnCl+                 2.096e-021  2.008e-021   -20.679   -20.697    -0.019
   ZnCl2                 4.109e-030  4.111e-030   -29.386   -29.386     0.000
   ZnCl3-                9.408e-039  9.014e-039   -38.027   -38.045    -0.019
   ZnCl4-2               0.000e+000  0.000e+000   -46.980   -47.054    -0.074
H(0)            0.000e+000
   H2                    0.000e+000  0.000e+000   -44.244   -44.244     0.000
Na              2.040e-009
   Na+                   2.039e-009  1.954e-009    -8.691    -8.709    -0.018
   NaHCO3                1.000e-012  1.000e-012   -12.000   -12.000     0.000
   NaCO3-                3.083e-013  2.954e-013   -12.511   -12.530    -0.019
   NaOH                  2.454e-015  2.455e-015   -14.610   -14.610     0.000
O(0)            2.562e-004
   O2                    1.281e-004  1.281e-004    -3.893    -3.892     0.000
Zn              1.500e-012
   ZnCO3                 6.182e-013  6.184e-013   -12.209   -12.209     0.000
   Zn+2                  4.520e-013  3.818e-013   -12.345   -12.418    -0.073
   Zn(OH)2               1.737e-013  1.737e-013   -12.760   -12.760     0.000
   Zn(CO3)2-2            1.273e-013  1.073e-013   -12.895   -12.969    -0.074
   ZnOH+                 8.306e-014  7.959e-014   -13.081   -13.099    -0.019
   ZnHCO3+               4.567e-014  4.376e-014   -13.340   -13.359    -0.019
   Zn(OH)3-              1.090e-016  1.045e-016   -15.963   -15.981    -0.019
   Zn(OH)4-2             3.734e-021  3.148e-021   -20.428   -20.502    -0.074
   ZnCl+                 2.096e-021  2.008e-021   -20.679   -20.697    -0.019
   ZnCl2                 4.109e-030  4.111e-030   -29.386   -29.386     0.000
   ZnCl3-                9.408e-039  9.014e-039   -38.027   -38.045    -0.019
   ZnCl4-2               0.000e+000  0.000e+000   -46.980   -47.054    -0.074

------------------------------Saturation indices-------------------------------

	Phase               SI log IAP  log KT

	Aragonite        -0.14   -8.48   -8.34  CaCO3
	Calcite          -0.00   -8.48   -8.48  CaCO3
	CH4(g)         -142.09 -144.95   -2.86  CH4
	CO2(g)           -3.50   -4.97   -1.47  CO2
	H2(g)           -41.09  -44.24   -3.15  H2
	H2O(g)           -1.51   -0.00    1.51  H2O
	Halite          -19.00  -17.42    1.58  NaCl
	O2(g)            -1.00   -3.89   -2.89  O2
	Smithsonite      -7.51  -17.51  -10.00  ZnCO3
	Zn(OH)2(e)       -7.36    4.14   11.50  Zn(OH)2

Using solution 2.	
Using pure phase assemblage 2.	Pp_Assemblage defined in simulation 2.
Using solid solution assemblage 2.	S_S_Assemblage defined in simulation 2.

-------------------------------Phase assemblage--------------------------------

                                                      Moles in assemblage
Phase                  SI log IAP  log KT      Initial       Final       Delta

Halite             -19.00  -17.42    1.58   1.000e+001  1.000e+001 -2.040e-009

--------------------------------Solid solutions--------------------------------


Solid solution                Component        Moles  Delta moles   Mole fract

CaZnCO3                                    0.00e+000
                                Calcite    0.00e+000    1.00e-014    0.00e+000
                            Smithsonite    0.00e+000    1.02e-022    0.00e+000

-----------------------------Solution composition------------------------------

	Elements           Molality       Moles

	C                9.803e-004  9.803e-004
	Ca               4.934e-004  4.934e-004
	Cl               2.040e-009  2.040e-009
	Na               2.040e-009  2.040e-009
	Zn               1.500e-012  1.500e-012

----------------------------Description of solution----------------------------

                                       pH  =   8.279      Charge balance
                                       pe  =  12.268      Adjusted to redox equilibrium
       Specific Conductance (uS/cm, 25 oC) = 96
                          Density (g/cm3)  =   0.99711
                        Activity of water  =   1.000
                           Ionic strength  =  1.463e-003
                       Mass of water (kg)  =  1.000e+000
                 Total alkalinity (eq/kg)  =  9.867e-004
                       Total CO2 (mol/kg)  =  9.803e-004
                      Temperature (deg C)  =  25.000
                  Electrical balance (eq)  = -8.957e-016
 Percent error, 100*(Cat-|An|)/(Cat+|An|)  =  -0.00
                               Iterations  =  16
                                  Total H  = 1.110134e+002
                                  Total O  = 5.550941e+001

----------------------------Distribution of species----------------------------

                                                   Log       Log         Log 
   Species                 Molality    Activity  Molality  Activity     Gamma

   OH-                   1.987e-006  1.903e-006    -5.702    -5.720    -0.019
   H+                    5.476e-009  5.260e-009    -8.262    -8.279    -0.018
   H2O-0.01              7.539e-010  7.539e-010    -9.123    -9.123    -0.000
   H2O                   5.551e+001  1.000e+000     1.744    -0.000     0.000
C(-4)           0.000e+000
   CH4                   0.000e+000  0.000e+000  -144.953  -144.953     0.000
C(4)            9.803e-004
   HCO3-                 9.495e-004  9.104e-004    -3.023    -3.041    -0.018
   CO2                   1.076e-005  1.077e-005    -4.968    -4.968     0.000
   CO3-2                 9.603e-006  8.118e-006    -5.018    -5.091    -0.073
   CaCO3                 5.563e-006  5.565e-006    -5.255    -5.255     0.000
   CaHCO3+               4.943e-006  4.740e-006    -5.306    -5.324    -0.018
   NaHCO3                1.000e-012  1.000e-012   -12.000   -12.000     0.000
   ZnCO3                 6.182e-013  6.184e-013   -12.209   -12.209     0.000
   NaCO3-                3.083e-013  2.954e-013   -12.511   -12.530    -0.019
   Zn(CO3)2-2            1.273e-013  1.073e-013   -12.895   -12.969    -0.074
   ZnHCO3+               4.567e-014  4.376e-014   -13.340   -13.359    -0.019
Ca              4.934e-004
   Ca+2                  4.829e-004  4.081e-004    -3.316    -3.389    -0.073
   CaCO3                 5.563e-006  5.565e-006    -5.255    -5.255     0.000
   CaHCO3+               4.943e-006  4.740e-006    -5.306    -5.324    -0.018
   CaOH+                 1.344e-008  1.288e-008    -7.872    -7.890    -0.019
Cl              2.040e-009
   Cl-                   2.040e-009  1.955e-009    -8.690    -8.709    -0.019
   ZnCl+                 2.096e-021  2.008e-021   -20.679   -20.697    -0.019
   ZnCl2                 4.109e-030  4.111e-030   -29.386   -29.386     0.000
   ZnCl3-                9.408e-039  9.014e-039   -38.027   -38.045    -0.019
   ZnCl4-2               0.000e+000  0.000e+000   -46.980   -47.054    -0.074
H(0)            0.000e+000
   H2                    0.000e+000  0.000e+000   -44.244   -44.244     0.000
Na              2.040e-009
   Na+                   2.039e-009  1.954e-009    -8.691    -8.709    -0.018
   NaHCO3                1.000e-012  1.000e-012   -12.000   -12.000     0.000
   NaCO3-                3.083e-013  2.954e-013   -12.511   -12.530    -0.019
   NaOH                  2.454e-015  2.455e-015   -14.610   -14.610     0.000
O(0)            2.562e-004
   O2                    1.281e-004  1.281e-004    -3.893    -3.892     0.000
Zn              1.500e-012
   ZnCO3                 6.182e-013  6.184e-013   -12.209   -12.209     0.000
   Zn+2                  4.520e-013  3.818e-013   -12.345   -12.418    -0.073
   Zn(OH)2               1.737e-013  1.737e-013   -12.760   -12.760     0.000
   Zn(CO3)2-2            1.273e-013  1.073e-013   -12.895   -12.969    -0.074
   ZnOH+                 8.306e-014  7.959e-014   -13.081   -13.099    -0.019
   ZnHCO3+               4.567e-014  4.376e-014   -13.340   -13.359    -0.019
   Zn(OH)3-              1.090e-016  1.045e-016   -15.963   -15.981    -0.019
   Zn(OH)4-2             3.734e-021  3.148e-021   -20.428   -20.502    -0.074
   ZnCl+                 2.096e-021  2.008e-021   -20.679   -20.697    -0.019
   ZnCl2                 4.109e-030  4.111e-030   -29.386   -29.386     0.000
   ZnCl3-                9.408e-039  9.014e-039   -38.027   -38.045    -0.019
   ZnCl4-2               0.000e+000  0.000e+000   -46.980   -47.054    -0.074

------------------------------Saturation indices-------------------------------

	Phase               SI log IAP  log KT

	Aragonite        -0.14   -8.48   -8.34  CaCO3
	Calcite          -0.00   -8.48   -8.48  CaCO3
	CH4(g)         -142.09 -144.95   -2.86  CH4
	CO2(g)           -3.50   -4.97   -1.47  CO2
	H2(g)           -41.09  -44.24   -3.15  H2
	H2O(g)           -1.51   -0.00    1.51  H2O
	Halite          -19.00  -17.42    1.58  NaCl
	O2(g)            -1.00   -3.89   -2.89  O2
	Smithsonite      -7.51  -17.51  -10.00  ZnCO3
	Zn(OH)2(e)       -7.36    4.14   11.50  Zn(OH)2

Using solution 3.	
Using pure phase assemblage 3.	Pp_Assemblage defined in simulation 2.
Using solid solution assemblage 3.	S_S_Assemblage defined in simulation 2.

-------------------------------Phase assemblage--------------------------------

                                                      Moles in assemblage
Phase                  SI log IAP  log KT      Initial       Final       Delta

Halite             -19.00  -17.42    1.58   1.000e+001  1.000e+001 -2.040e-009

--------------------------------Solid solutions--------------------------------


Solid solution                Component        Moles  Delta moles   Mole fract

CaZnCO3                                    0.00e+000
                                Calcite    0.00e+000    1.00e-014    0.00e+000
                            Smithsonite    0.00e+000    1.02e-022    0.00e+000

-----------------------------Solution composition------------------------------

	Elements           Molality       Moles

	C                9.803e-004  9.803e-004
	Ca               4.934e-004  4.934e-004
	Cl               2.040e-009  2.040e-009
	Na               2.040e-009  2.040e-009
	Zn               1.500e-012  1.500e-012

----------------------------Description of solution----------------------------

                                       pH  =   8.279      Charge balance
                                       pe  =  12.268      Adjusted to redox equilibrium
       Specific Conductance (uS/cm, 25 oC) = 96
                          Density (g/cm3)  =   0.99711
                        Activity of water  =   1.000
                           Ionic strength  =  1.463e-003
                       Mass of water (kg)  =  1.000e+000
                 Total alkalinity (eq/kg)  =  9.867e-004
                       Total CO2 (mol/kg)  =  9.803e-004
                      Temperature (deg C)  =  25.000
                  Electrical balance (eq)  = -8.957e-016
 Percent error, 100*(Cat-|An|)/(Cat+|An|)  =  -0.00
                               Iterations  =  16
                                  Total H  = 1.110134e+002
                                  Total O  = 5.550941e+001

----------------------------Distribution of species----------------------------

                                                   Log       Log         Log 
   Species                 Molality    Activity  Molality  Activity     Gamma

   OH-                   1.987e-006  1.903e-006    -5.702    -5.720    -0.019
   H+                    5.476e-009  5.260e-009    -8.262    -8.279    -0.018
   H2O-0.01              7.539e-010  7.539e-010    -9.123    -9.123    -0.000
   H2O                   5.551e+001  1.000e+000     1.744    -0.000     0.000
C(-4)           0.000e+000
   CH4                   0.000e+000  0.000e+000  -144.953  -144.953     0.000
C(4)            9.803e-004
   HCO3-                 9.495e-004  9.104e-004    -3.023    -3.041    -0.018
   CO2                   1.076e-005  1.077e-005    -4.968    -4.968     0.000
   CO3-2                 9.603e-006  8.118e-006    -5.018    -5.091    -0.073
   CaCO3                 5.563e-006  5.565e-006    -5.255    -5.255     0.000
   CaHCO3+               4.943e-006  4.740e-006    -5.306    -5.324    -0.018
   NaHCO3                1.000e-012  1.000e-012   -12.000   -12.000     0.000
   ZnCO3                 6.182e-013  6.184e-013   -12.209   -12.209     0.000
   NaCO3-                3.083e-013  2.954e-013   -12.511   -12.530    -0.019
   Zn(CO3)2-2            1.273e-013  1.073e-013   -12.895   -12.969    -0.074
   ZnHCO3+               4.567e-014  4.376e-014   -13.340   -13.359    -0.019
Ca              4.934e-004
   Ca+2                  4.829e-004  4.081e-004    -3.316    -3.389    -0.073
   CaCO3                 5.563e-006  5.565e-006    -5.255    -5.255     0.000
   CaHCO3+               4.943e-006  4.740e-006    -5.306    -5.324    -0.018
   CaOH+                 1.344e-008  1.288e-008    -7.872    -7.890    -0.019
Cl              2.040e-009
   Cl-                   2.040e-009  1.955e-009    -8.690    -8.709    -0.019
   ZnCl+                 2.096e-021  2.008e-021   -20.679   -20.697    -0.019
   ZnCl2                 4.109e-030  4.111e-030   -29.386   -29.386     0.000
   ZnCl3-                9.408e-039  9.014e-039   -38.027   -38.045    -0.019
   ZnCl4-2               0.000e+000  0.000e+000   -46.980   -47.054    -0.074
H(0)            0.000e+000
   H2                    0.000e+000  0.000e+000   -44.244   -44.244     0.000
Na              2.040e-009
   Na+                   2.039e-009  1.954e-009    -8.691    -8.709    -0.018
   NaHCO3                1.000e-012  1.000e-012   -12.000   -12.000     0.000
   NaCO3-                3.083e-013  2.954e-013   -12.511   -12.530    -0.019
   NaOH                  2.454e-015  2.455e-015   -14.610   -14.610     0.000
O(0)            2.562e-004
   O2                    1.281e-004  1.281e-004    -3.893    -3.892     0.000
Zn              1.500e-012
   ZnCO3                 6.182e-013  6.184e-013   -12.209   -12.209     0.000
   Zn+2                  4.520e-013  3.818e-013   -12.345   -12.418    -0.073
   Zn(OH)2               1.737e-013  1.737e-013   -12.760   -12.760     0.000
   Zn(CO3)2-2            1.273e-013  1.073e-013   -12.895   -12.969    -0.074
   ZnOH+                 8.306e-014  7.959e-014   -13.081   -13.099    -0.019
   ZnHCO3+               4.567e-014  4.376e-014   -13.340   -13.359    -0.019
   Zn(OH)3-              1.090e-016  1.045e-016   -15.963   -15.981    -0.019
   Zn(OH)4-2             3.734e-021  3.148e-021   -20.428   -20.502    -0.074
   ZnCl+                 2.096e-021  2.008e-021   -20.679   -20.697    -0.019
   ZnCl2                 4.109e-030  4.111e-030   -29.386   -29.386     0.000
   ZnCl3-                9.408e-039  9.014e-039   -38.027   -38.045    -0.019
   ZnCl4-2               0.000e+000  0.000e+000   -46.980   -47.054    -0.074

------------------------------Saturation indices-------------------------------

	Phase               SI log IAP  log KT

	Aragonite        -0.14   -8.48   -8.34  CaCO3
	Calcite          -0.00   -8.48   -8.48  CaCO3
	CH4(g)         -142.09 -144.95   -2.86  CH4
	CO2(g)           -3.50   -4.97   -1.47  CO2
	H2(g)           -41.09  -44.24   -3.15  H2
	H2O(g)           -1.51   -0.00    1.51  H2O
	Halite          -19.00  -17.42    1.58  NaCl
	O2(g)            -1.00   -3.89   -2.89  O2
	Smithsonite      -7.51  -17.51  -10.00  ZnCO3
	Zn(OH)2(e)       -7.36    4.14   11.50  Zn(OH)2

Using solution 4.	
Using pure phase assemblage 4.	Pp_Assemblage defined in simulation 2.
Using solid solution assemblage 4.	S_S_Assemblage defined in simulation 2.

-------------------------------Phase assemblage--------------------------------

                                                      Moles in assemblage
Phase                  SI log IAP  log KT      Initial       Final       Delta

Halite             -19.00  -17.42    1.58   1.000e+001  1.000e+001 -2.040e-009

--------------------------------Solid solutions--------------------------------


Solid solution                Component        Moles  Delta moles   Mole fract

CaZnCO3                                    0.00e+000
                                Calcite    0.00e+000    1.00e-014    0.00e+000
                            Smithsonite    0.00e+000    1.02e-022    0.00e+000

-----------------------------Solution composition------------------------------

	Elements           Molality       Moles

	C                9.803e-004  9.803e-004
	Ca               4.934e-004  4.934e-004
	Cl               2.040e-009  2.040e-009
	Na               2.040e-009  2.040e-009
	Zn               1.500e-012  1.500e-012

----------------------------Description of solution----------------------------

                                       pH  =   8.279      Charge balance
                                       pe  =  12.268      Adjusted to redox equilibrium
       Specific Conductance (uS/cm, 25 oC) = 96
                          Density (g/cm3)  =   0.99711
                        Activity of water  =   1.000
                           Ionic strength  =  1.463e-003
                       Mass of water (kg)  =  1.000e+000
                 Total alkalinity (eq/kg)  =  9.867e-004
                       Total CO2 (mol/kg)  =  9.803e-004
                      Temperature (deg C)  =  25.000
                  Electrical balance (eq)  = -8.957e-016
 Percent error, 100*(Cat-|An|)/(Cat+|An|)  =  -0.00
                               Iterations  =  16
                                  Total H  = 1.110134e+002
                                  Total O  = 5.550941e+001

----------------------------Distribution of species----------------------------

                                                   Log       Log         Log 
   Species                 Molality    Activity  Molality  Activity     Gamma

   OH-                   1.987e-006  1.903e-006    -5.702    -5.720    -0.019
   H+                    5.476e-009  5.260e-009    -8.262    -8.279    -0.018
   H2O-0.01              7.539e-010  7.539e-010    -9.123    -9.123    -0.000
   H2O                   5.551e+001  1.000e+000     1.744    -0.000     0.000
C(-4)           0.000e+000
   CH4                   0.000e+000  0.000e+000  -144.953  -144.953     0.000
C(4)            9.803e-004
   HCO3-                 9.495e-004  9.104e-004    -3.023    -3.041    -0.018
   CO2                   1.076e-005  1.077e-005    -4.968    -4.968     0.000
   CO3-2                 9.603e-006  8.118e-006    -5.018    -5.091    -0.073
   CaCO3                 5.563e-006  5.565e-006    -5.255    -5.255     0.000
   CaHCO3+               4.943e-006  4.740e-006    -5.306    -5.324    -0.018
   NaHCO3                1.000e-012  1.000e-012   -12.000   -12.000     0.000
   ZnCO3                 6.182e-013  6.184e-013   -12.209   -12.209     0.000
   NaCO3-                3.083e-013  2.954e-013   -12.511   -12.530    -0.019
   Zn(CO3)2-2            1.273e-013  1.073e-013   -12.895   -12.969    -0.074
   ZnHCO3+               4.567e-014  4.376e-014   -13.340   -13.359    -0.019
Ca              4.934e-004
   Ca+2                  4.829e-004  4.081e-004    -3.316    -3.389    -0.073
   CaCO3                 5.563e-006  5.565e-006    -5.255    -5.255     0.000
   CaHCO3+               4.943e-006  4.740e-006    -5.306    -5.324    -0.018
   CaOH+                 1.344e-008  1.288e-008    -7.872    -7.890    -0.019
Cl              2.040e-009
   Cl-                   2.040e-009  1.955e-009    -8.690    -8.709    -0.019
   ZnCl+                 2.096e-021  2.008e-021   -20.679   -20.697    -0.019
   ZnCl2                 4.109e-030  4.111e-030   -29.386   -29.386     0.000
   ZnCl3-                9.408e-039  9.014e-039   -38.027   -38.045    -0.019
   ZnCl4-2               0.000e+000  0.000e+000   -46.980   -47.054    -0.074
H(0)            0.000e+000
   H2                    0.000e+000  0.000e+000   -44.244   -44.244     0.000
Na              2.040e-009
   Na+                   2.039e-009  1.954e-009    -8.691    -8.709    -0.018
   NaHCO3                1.000e-012  1.000e-012   -12.000   -12.000     0.000
   NaCO3-                3.083e-013  2.954e-013   -12.511   -12.530    -0.019
   NaOH                  2.454e-015  2.455e-015   -14.610   -14.610     0.000
O(0)            2.562e-004
   O2                    1.281e-004  1.281e-004    -3.893    -3.892     0.000
Zn              1.500e-012
   ZnCO3                 6.182e-013  6.184e-013   -12.209   -12.209     0.000
   Zn+2                  4.520e-013  3.818e-013   -12.345   -12.418    -0.073
   Zn(OH)2               1.737e-013  1.737e-013   -12.760   -12.760     0.000
   Zn(CO3)2-2            1.273e-013  1.073e-013   -12.895   -12.969    -0.074
   ZnOH+                 8.306e-014  7.959e-014   -13.081   -13.099    -0.019
   ZnHCO3+               4.567e-014  4.376e-014   -13.340   -13.359    -0.019
   Zn(OH)3-              1.090e-016  1.045e-016   -15.963   -15.981    -0.019
   Zn(OH)4-2             3.734e-021  3.148e-021   -20.428   -20.502    -0.074
   ZnCl+                 2.096e-021  2.008e-021   -20.679   -20.697    -0.019
   ZnCl2                 4.109e-030  4.111e-030   -29.386   -29.386     0.000
   ZnCl3-                9.408e-039  9.014e-039   -38.027   -38.045    -0.019
   ZnCl4-2               0.000e+000  0.000e+000   -46.980   -47.054    -0.074

------------------------------Saturation indices-------------------------------

	Phase               SI log IAP  log KT

	Aragonite        -0.14   -8.48   -8.34  CaCO3
	Calcite          -0.00   -8.48   -8.48  CaCO3
	CH4(g)         -142.09 -144.95   -2.86  CH4
	CO2(g)           -3.50   -4.97   -1.47  CO2
	H2(g)           -41.09  -44.24   -3.15  H2
	H2O(g)           -1.51   -0.00    1.51  H2O
	Halite          -19.00  -17.42    1.58  NaCl
	O2(g)            -1.00   -3.89   -2.89  O2
	Smithsonite      -7.51  -17.51  -10.00  ZnCO3
	Zn(OH)2(e)       -7.36    4.14   11.50  Zn(OH)2

Using solution 5.	
Using pure phase assemblage 5.	Pp_Assemblage defined in simulation 2.
Using solid solution assemblage 5.	S_S_Assemblage defined in simulation 2.

-------------------------------Phase assemblage--------------------------------

                                                      Moles in assemblage
Phase                  SI log IAP  log KT      Initial       Final       Delta

Halite             -19.00  -17.42    1.58   1.000e+001  1.000e+001 -2.040e-009

--------------------------------Solid solutions--------------------------------


Solid solution                Component        Moles  Delta moles   Mole fract

CaZnCO3                                    0.00e+000
                                Calcite    0.00e+000    1.00e-014    0.00e+000
                            Smithsonite    0.00e+000    1.02e-022    0.00e+000

-----------------------------Solution composition------------------------------

	Elements           Molality       Moles

	C                9.803e-004  9.803e-004
	Ca               4.934e-004  4.934e-004
	Cl               2.040e-009  2.040e-009
	Na               2.040e-009  2.040e-009
	Zn               1.500e-012  1.500e-012

----------------------------Description of solution----------------------------

                                       pH  =   8.279      Charge balance
                                       pe  =  12.268      Adjusted to redox equilibrium
       Specific Conductance (uS/cm, 25 oC) = 96
                          Density (g/cm3)  =   0.99711
                        Activity of water  =   1.000
                           Ionic strength  =  1.463e-003
                       Mass of water (kg)  =  1.000e+000
                 Total alkalinity (eq/kg)  =  9.867e-004
                       Total CO2 (mol/kg)  =  9.803e-004
                      Temperature (deg C)  =  25.000
                  Electrical balance (eq)  = -8.957e-016
 Percent error, 100*(Cat-|An|)/(Cat+|An|)  =  -0.00
                               Iterations  =  16
                                  Total H  = 1.110134e+002
                                  Total O  = 5.550941e+001

----------------------------Distribution of species----------------------------

                                                   Log       Log         Log 
   Species                 Molality    Activity  Molality  Activity     Gamma

   OH-                   1.987e-006  1.903e-006    -5.702    -5.720    -0.019
   H+                    5.476e-009  5.260e-009    -8.262    -8.279    -0.018
   H2O-0.01              7.539e-010  7.539e-010    -9.123    -9.123    -0.000
   H2O                   5.551e+001  1.000e+000     1.744    -0.000     0.000
C(-4)           0.000e+000
   CH4                   0.000e+000  0.000e+000  -144.953  -144.953     0.000
C(4)            9.803e-004
   HCO3-                 9.495e-004  9.104e-004    -3.023    -3.041    -0.018
   CO2                   1.076e-005  1.077e-005    -4.968    -4.968     0.000
   CO3-2                 9.603e-006  8.118e-006    -5.018    -5.091    -0.073
   CaCO3                 5.563e-006  5.565e-006    -5.255    -5.255     0.000
   CaHCO3+               4.943e-006  4.740e-006    -5.306    -5.324    -0.018
   NaHCO3                1.000e-012  1.000e-012   -12.000   -12.000     0.000
   ZnCO3                 6.182e-013  6.184e-013   -12.209   -12.209     0.000
   NaCO3-                3.083e-013  2.954e-013   -12.511   -12.530    -0.019
   Zn(CO3)2-2            1.273e-013  1.073e-013   -12.895   -12.969    -0.074
   ZnHCO3+               4.567e-014  4.376e-014   -13.340   -13.359    -0.019
Ca              4.934e-004
   Ca+2                  4.829e-004  4.081e-004    -3.316    -3.389    -0.073
   CaCO3                 5.563e-006  5.565e-006    -5.255    -5.255     0.000
   CaHCO3+               4.943e-006  4.740e-006    -5.306    -5.324    -0.018
   CaOH+                 1.344e-008  1.288e-008    -7.872    -7.890    -0.019
Cl              2.040e-009
   Cl-                   2.040e-009  1.955e-009    -8.690    -8.709    -0.019
   ZnCl+                 2.096e-021  2.008e-021   -20.679   -20.697    -0.019
   ZnCl2                 4.109e-030  4.111e-030   -29.386   -29.386     0.000
   ZnCl3-                9.408e-039  9.014e-039   -38.027   -38.045    -0.019
   ZnCl4-2               0.000e+000  0.000e+000   -46.980   -47.054    -0.074
H(0)            0.000e+000
   H2                    0.000e+000  0.000e+000   -44.244   -44.244     0.000
Na              2.040e-009
   Na+                   2.039e-009  1.954e-009    -8.691    -8.709    -0.018
   NaHCO3                1.000e-012  1.000e-012   -12.000   -12.000     0.000
   NaCO3-                3.083e-013  2.954e-013   -12.511   -12.530    -0.019
   NaOH                  2.454e-015  2.455e-015   -14.610   -14.610     0.000
O(0)            2.562e-004
   O2                    1.281e-004  1.281e-004    -3.893    -3.892     0.000
Zn              1.500e-012
   ZnCO3                 6.182e-013  6.184e-013   -12.209   -12.209     0.000
   Zn+2                  4.520e-013  3.818e-013   -12.345   -12.418    -0.073
   Zn(OH)2               1.737e-013  1.737e-013   -12.760   -12.760     0.000
   Zn(CO3)2-2            1.273e-013  1.073e-013   -12.895   -12.969    -0.074
   ZnOH+                 8.306e-014  7.959e-014   -13.081   -13.099    -0.019
   ZnHCO3+               4.567e-014  4.376e-014   -13.340   -13.359    -0.019
   Zn(OH)3-              1.090e-016  1.045e-016   -15.963   -15.981    -0.019
   Zn(OH)4-2             3.734e-021  3.148e-021   -20.428   -20.502    -0.074
   ZnCl+                 2.096e-021  2.008e-021   -20.679   -20.697    -0.019
   ZnCl2                 4.109e-030  4.111e-030   -29.386   -29.386     0.000
   ZnCl3-                9.408e-039  9.014e-039   -38.027   -38.045    -0.019
   ZnCl4-2               0.000e+000  0.000e+000   -46.980   -47.054    -0.074

------------------------------Saturation indices-------------------------------

	Phase               SI log IAP  log KT

	Aragonite        -0.14   -8.48   -8.34  CaCO3
	Calcite          -0.00   -8.48   -8.48  CaCO3
	CH4(g)         -142.09 -144.95   -2.86  CH4
	CO2(g)           -3.50   -4.97   -1.47  CO2
	H2(g)           -41.09  -44.24   -3.15  H2
	H2O(g)           -1.51   -0.00    1.51  H2O
	Halite          -19.00  -17.42    1.58  NaCl
	O2(g)            -1.00   -3.89   -2.89  O2
	Smithsonite      -7.51  -17.51  -10.00  ZnCO3
	Zn(OH)2(e)       -7.36    4.14   11.50  Zn(OH)2

Using solution 6.	
Using pure phase assemblage 6.	Pp_Assemblage defined in simulation 2.
Using solid solution assemblage 6.	S_S_Assemblage defined in simulation 2.

-------------------------------Phase assemblage--------------------------------

                                                      Moles in assemblage
Phase                  SI log IAP  log KT      Initial       Final       Delta

Halite             -19.00  -17.42    1.58   1.000e+001  1.000e+001 -2.040e-009

--------------------------------Solid solutions--------------------------------


Solid solution                Component        Moles  Delta moles   Mole fract

CaZnCO3                                    0.00e+000
                                Calcite    0.00e+000    1.00e-014    0.00e+000
                            Smithsonite    0.00e+000    1.02e-022    0.00e+000

-----------------------------Solution composition------------------------------

	Elements           Molality       Moles

	C                9.803e-004  9.803e-004
	Ca               4.934e-004  4.934e-004
	Cl               2.040e-009  2.040e-009
	Na               2.040e-009  2.040e-009
	Zn               1.500e-012  1.500e-012

----------------------------Description of solution----------------------------

                                       pH  =   8.279      Charge balance
                                       pe  =  12.268      Adjusted to redox equilibrium
       Specific Conductance (uS/cm, 25 oC) = 96
                          Density (g/cm3)  =   0.99711
                        Activity of water  =   1.000
                           Ionic strength  =  1.463e-003
                       Mass of water (kg)  =  1.000e+000
                 Total alkalinity (eq/kg)  =  9.867e-004
                       Total CO2 (mol/kg)  =  9.803e-004
                      Temperature (deg C)  =  25.000
                  Electrical balance (eq)  = -8.957e-016
 Percent error, 100*(Cat-|An|)/(Cat+|An|)  =  -0.00
                               Iterations  =  16
                                  Total H  = 1.110134e+002
                                  Total O  = 5.550941e+001

----------------------------Distribution of species----------------------------

                                                   Log       Log         Log 
   Species                 Molality    Activity  Molality  Activity     Gamma

   OH-                   1.987e-006  1.903e-006    -5.702    -5.720    -0.019
   H+                    5.476e-009  5.260e-009    -8.262    -8.279    -0.018
   H2O-0.01              7.539e-010  7.539e-010    -9.123    -9.123    -0.000
   H2O                   5.551e+001  1.000e+000     1.744    -0.000     0.000
C(-4)           0.000e+000
   CH4                   0.000e+000  0.000e+000  -144.953  -144.953     0.000
C(4)            9.803e-004
   HCO3-                 9.495e-004  9.104e-004    -3.023    -3.041    -0.018
   CO2                   1.076e-005  1.077e-005    -4.968    -4.968     0.000
   CO3-2                 9.603e-006  8.118e-006    -5.018    -5.091    -0.073
   CaCO3                 5.563e-006  5.565e-006    -5.255    -5.255     0.000
   CaHCO3+               4.943e-006  4.740e-006    -5.306    -5.324    -0.018
   NaHCO3                1.000e-012  1.000e-012   -12.000   -12.000     0.000
   ZnCO3                 6.182e-013  6.184e-013   -12.209   -12.209     0.000
   NaCO3-                3.083e-013  2.954e-013   -12.511   -12.530    -0.019
   Zn(CO3)2-2            1.273e-013  1.073e-013   -12.895   -12.969    -0.074
   ZnHCO3+               4.567e-014  4.376e-014   -13.340   -13.359    -0.019
Ca              4.934e-004
   Ca+2                  4.829e-004  4.081e-004    -3.316    -3.389    -0.073
   CaCO3                 5.563e-006  5.565e-006    -5.255    -5.255     0.000
   CaHCO3+               4.943e-006  4.740e-006    -5.306    -5.324    -0.018
   CaOH+                 1.344e-008  1.288e-008    -7.872    -7.890    -0.019
Cl              2.040e-009
   Cl-                   2.040e-009  1.955e-009    -8.690    -8.709    -0.019
   ZnCl+                 2.096e-021  2.008e-021   -20.679   -20.697    -0.019
   ZnCl2                 4.109e-030  4.111e-030   -29.386   -29.386     0.000
   ZnCl3-                9.408e-039  9.014e-039   -38.027   -38.045    -0.019
   ZnCl4-2               0.000e+000  0.000e+000   -46.980   -47.054    -0.074
H(0)            0.000e+000
   H2                    0.000e+000  0.000e+000   -44.244   -44.244     0.000
Na              2.040e-009
   Na+                   2.039e-009  1.954e-009    -8.691    -8.709    -0.018
   NaHCO3                1.000e-012  1.000e-012   -12.000   -12.000     0.000
   NaCO3-                3.083e-013  2.954e-013   -12.511   -12.530    -0.019
   NaOH                  2.454e-015  2.455e-015   -14.610   -14.610     0.000
O(0)            2.562e-004
   O2                    1.281e-004  1.281e-004    -3.893    -3.892     0.000
Zn              1.500e-012
   ZnCO3                 6.182e-013  6.184e-013   -12.209   -12.209     0.000
   Zn+2                  4.520e-013  3.818e-013   -12.345   -12.418    -0.073
   Zn(OH)2               1.737e-013  1.737e-013   -12.760   -12.760     0.000
   Zn(CO3)2-2            1.273e-013  1.073e-013   -12.895   -12.969    -0.074
   ZnOH+                 8.306e-014  7.959e-014   -13.081   -13.099    -0.019
   ZnHCO3+               4.567e-014  4.376e-014   -13.340   -13.359    -0.019
   Zn(OH)3-              1.090e-016  1.045e-016   -15.963   -15.981    -0.019
   Zn(OH)4-2             3.734e-021  3.148e-021   -20.428   -20.502    -0.074
   ZnCl+                 2.096e-021  2.008e-021   -20.679   -20.697    -0.019
   ZnCl2                 4.109e-030  4.111e-030   -29.386   -29.386     0.000
   ZnCl3-                9.408e-039  9.014e-039   -38.027   -38.045    -0.019
   ZnCl4-2               0.000e+000  0.000e+000   -46.980   -47.054    -0.074

------------------------------Saturation indices-------------------------------

	Phase               SI log IAP  log KT

	Aragonite        -0.14   -8.48   -8.34  CaCO3
	Calcite          -0.00   -8.48   -8.48  CaCO3
	CH4(g)         -142.09 -144.95   -2.86  CH4
	CO2(g)           -3.50   -4.97   -1.47  CO2
	H2(g)           -41.09  -44.24   -3.15  H2
	H2O(g)           -1.51   -0.00    1.51  H2O
	Halite          -19.00  -17.42    1.58  NaCl
	O2(g)            -1.00   -3.89   -2.89  O2
	Smithsonite      -7.51  -17.51  -10.00  ZnCO3
	Zn(OH)2(e)       -7.36    4.14   11.50  Zn(OH)2

Using solution 7.	
Using pure phase assemblage 7.	Pp_Assemblage defined in simulation 2.
Using solid solution assemblage 7.	S_S_Assemblage defined in simulation 2.

-------------------------------Phase assemblage--------------------------------

                                                      Moles in assemblage
Phase                  SI log IAP  log KT      Initial       Final       Delta

Halite             -19.00  -17.42    1.58   1.000e+001  1.000e+001 -2.040e-009

--------------------------------Solid solutions--------------------------------


Solid solution                Component        Moles  Delta moles   Mole fract

CaZnCO3                                    0.00e+000
                                Calcite    0.00e+000    1.00e-014    0.00e+000
                            Smithsonite    0.00e+000    1.02e-022    0.00e+000

-----------------------------Solution composition------------------------------

	Elements           Molality       Moles

	C                9.803e-004  9.803e-004
	Ca               4.934e-004  4.934e-004
	Cl               2.040e-009  2.040e-009
	Na               2.040e-009  2.040e-009
	Zn               1.500e-012  1.500e-012

----------------------------Description of solution----------------------------

                                       pH  =   8.279      Charge balance
                                       pe  =  12.268      Adjusted to redox equilibrium
       Specific Conductance (uS/cm, 25 oC) = 96
                          Density (g/cm3)  =   0.99711
                        Activity of water  =   1.000
                           Ionic strength  =  1.463e-003
                       Mass of water (kg)  =  1.000e+000
                 Total alkalinity (eq/kg)  =  9.867e-004
                       Total CO2 (mol/kg)  =  9.803e-004
                      Temperature (deg C)  =  25.000
                  Electrical balance (eq)  = -8.957e-016
 Percent error, 100*(Cat-|An|)/(Cat+|An|)  =  -0.00
                               Iterations  =  16
                                  Total H  = 1.110134e+002
                                  Total O  = 5.550941e+001

----------------------------Distribution of species----------------------------

                                                   Log       Log         Log 
   Species                 Molality    Activity  Molality  Activity     Gamma

   OH-                   1.987e-006  1.903e-006    -5.702    -5.720    -0.019
   H+                    5.476e-009  5.260e-009    -8.262    -8.279    -0.018
   H2O-0.01              7.539e-010  7.539e-010    -9.123    -9.123    -0.000
   H2O                   5.551e+001  1.000e+000     1.744    -0.000     0.000
C(-4)           0.000e+000
   CH4                   0.000e+000  0.000e+000  -144.953  -144.953     0.000
C(4)            9.803e-004
   HCO3-                 9.495e-004  9.104e-004    -3.023    -3.041    -0.018
   CO2                   1.076e-005  1.077e-005    -4.968    -4.968     0.000
   CO3-2                 9.603e-006  8.118e-006    -5.018    -5.091    -0.073
   CaCO3                 5.563e-006  5.565e-006    -5.255    -5.255     0.000
   CaHCO3+               4.943e-006  4.740e-006    -5.306    -5.324    -0.018
   NaHCO3                1.000e-012  1.000e-012   -12.000   -12.000     0.000
   ZnCO3                 6.182e-013  6.184e-013   -12.209   -12.209     0.000
   NaCO3-                3.083e-013  2.954e-013   -12.511   -12.530    -0.019
   Zn(CO3)2-2            1.273e-013  1.073e-013   -12.895   -12.969    -0.074
   ZnHCO3+               4.567e-014  4.376e-014   -13.340   -13.359    -0.019
Ca              4.934e-004
   Ca+2                  4.829e-004  4.081e-004    -3.316    -3.389    -0.073
   CaCO3                 5.563e-006  5.565e-006    -5.255    -5.255     0.000
   CaHCO3+               4.943e-006  4.740e-006    -5.306    -5.324    -0.018
   CaOH+                 1.344e-008  1.288e-008    -7.872    -7.890    -0.019
Cl              2.040e-009
   Cl-                   2.040e-009  1.955e-009    -8.690    -8.709    -0.019
   ZnCl+                 2.096e-021  2.008e-021   -20.679   -20.697    -0.019
   ZnCl2                 4.109e-030  4.111e-030   -29.386   -29.386     0.000
   ZnCl3-                9.408e-039  9.014e-039   -38.027   -38.045    -0.019
   ZnCl4-2               0.000e+000  0.000e+000   -46.980   -47.054    -0.074
H(0)            0.000e+000
   H2                    0.000e+000  0.000e+000   -44.244   -44.244     0.000
Na              2.040e-009
   Na+                   2.039e-009  1.954e-009    -8.691    -8.709    -0.018
   NaHCO3                1.000e-012  1.000e-012   -12.000   -12.000     0.000
   NaCO3-                3.083e-013  2.954e-013   -12.511   -12.530    -0.019
   NaOH                  2.454e-015  2.455e-015   -14.610   -14.610     0.000
O(0)            2.562e-004
   O2                    1.281e-004  1.281e-004    -3.893    -3.892     0.000
Zn              1.500e-012
   ZnCO3                 6.182e-013  6.184e-013   -12.209   -12.209     0.000
   Zn+2                  4.520e-013  3.818e-013   -12.345   -12.418    -0.073
   Zn(OH)2               1.737e-013  1.737e-013   -12.760   -12.760     0.000
   Zn(CO3)2-2            1.273e-013  1.073e-013   -12.895   -12.969    -0.074
   ZnOH+                 8.306e-014  7.959e-014   -13.081   -13.099    -0.019
   ZnHCO3+               4.567e-014  4.376e-014   -13.340   -13.359    -0.019
   Zn(OH)3-              1.090e-016  1.045e-016   -15.963   -15.981    -0.019
   Zn(OH)4-2             3.734e-021  3.148e-021   -20.428   -20.502    -0.074
   ZnCl+                 2.096e-021  2.008e-021   -20.679   -20.697    -0.019
   ZnCl2                 4.109e-030  4.111e-030   -29.386   -29.386     0.000
   ZnCl3-                9.408e-039  9.014e-039   -38.027   -38.045    -0.019
   ZnCl4-2               0.000e+000  0.000e+000   -46.980   -47.054    -0.074

------------------------------Saturation indices-------------------------------

	Phase               SI log IAP  log KT

	Aragonite        -0.14   -8.48   -8.34  CaCO3
	Calcite          -0.00   -8.48   -8.48  CaCO3
	CH4(g)         -142.09 -144.95   -2.86  CH4
	CO2(g)           -3.50   -4.97   -1.47  CO2
	H2(g)           -41.09  -44.24   -3.15  H2
	H2O(g)           -1.51   -0.00    1.51  H2O
	Halite          -19.00  -17.42    1.58  NaCl
	O2(g)            -1.00   -3.89   -2.89  O2
	Smithsonite      -7.51  -17.51  -10.00  ZnCO3
	Zn(OH)2(e)       -7.36    4.14   11.50  Zn(OH)2

Using solution 8.	
Using pure phase assemblage 8.	Pp_Assemblage defined in simulation 2.
Using solid solution assemblage 8.	S_S_Assemblage defined in simulation 2.

-------------------------------Phase assemblage--------------------------------

                                                      Moles in assemblage
Phase                  SI log IAP  log KT      Initial       Final       Delta

Halite             -19.00  -17.42    1.58   1.000e+001  1.000e+001 -2.040e-009

--------------------------------Solid solutions--------------------------------


Solid solution                Component        Moles  Delta moles   Mole fract

CaZnCO3                                    0.00e+000
                                Calcite    0.00e+000    1.00e-014    0.00e+000
                            Smithsonite    0.00e+000    1.02e-022    0.00e+000

-----------------------------Solution composition------------------------------

	Elements           Molality       Moles

	C                9.803e-004  9.803e-004
	Ca               4.934e-004  4.934e-004
	Cl               2.040e-009  2.040e-009
	Na               2.040e-009  2.040e-009
	Zn               1.500e-012  1.500e-012

----------------------------Description of solution----------------------------

                                       pH  =   8.279      Charge balance
                                       pe  =  12.268      Adjusted to redox equilibrium
       Specific Conductance (uS/cm, 25 oC) = 96
                          Density (g/cm3)  =   0.99711
                        Activity of water  =   1.000
                           Ionic strength  =  1.463e-003
                       Mass of water (kg)  =  1.000e+000
                 Total alkalinity (eq/kg)  =  9.867e-004
                       Total CO2 (mol/kg)  =  9.803e-004
                      Temperature (deg C)  =  25.000
                  Electrical balance (eq)  = -8.957e-016
 Percent error, 100*(Cat-|An|)/(Cat+|An|)  =  -0.00
                               Iterations  =  16
                                  Total H  = 1.110134e+002
                                  Total O  = 5.550941e+001

----------------------------Distribution of species----------------------------

                                                   Log       Log         Log 
   Species                 Molality    Activity  Molality  Activity     Gamma

   OH-                   1.987e-006  1.903e-006    -5.702    -5.720    -0.019
   H+                    5.476e-009  5.260e-009    -8.262    -8.279    -0.018
   H2O-0.01              7.539e-010  7.539e-010    -9.123    -9.123    -0.000
   H2O                   5.551e+001  1.000e+000     1.744    -0.000     0.000
C(-4)           0.000e+000
   CH4                   0.000e+000  0.000e+000  -144.953  -144.953     0.000
C(4)            9.803e-004
   HCO3-                 9.495e-004  9.104e-004    -3.023    -3.041    -0.018
   CO2                   1.076e-005  1.077e-005    -4.968    -4.968     0.000
   CO3-2                 9.603e-006  8.118e-006    -5.018    -5.091    -0.073
   CaCO3                 5.563e-006  5.565e-006    -5.255    -5.255     0.000
   CaHCO3+               4.943e-006  4.740e-006    -5.306    -5.324    -0.018
   NaHCO3                1.000e-012  1.000e-012   -12.000   -12.000     0.000
   ZnCO3                 6.182e-013  6.184e-013   -12.209   -12.209     0.000
   NaCO3-                3.083e-013  2.954e-013   -12.511   -12.530    -0.019
   Zn(CO3)2-2            1.273e-013  1.073e-013   -12.895   -12.969    -0.074
   ZnHCO3+               4.567e-014  4.376e-014   -13.340   -13.359    -0.019
Ca              4.934e-004
   Ca+2                  4.829e-004  4.081e-004    -3.316    -3.389    -0.073
   CaCO3                 5.563e-006  5.565e-006    -5.255    -5.255     0.000
   CaHCO3+               4.943e-006  4.740e-006    -5.306    -5.324    -0.018
   CaOH+                 1.344e-008  1.288e-008    -7.872    -7.890    -0.019
Cl              2.040e-009
   Cl-                   2.040e-009  1.955e-009    -8.690    -8.709    -0.019
   ZnCl+                 2.096e-021  2.008e-021   -20.679   -20.697    -0.019
   ZnCl2                 4.109e-030  4.111e-030   -29.386   -29.386     0.000
   ZnCl3-                9.408e-039  9.014e-039   -38.027   -38.045    -0.019
   ZnCl4-2               0.000e+000  0.000e+000   -46.980   -47.054    -0.074
H(0)            0.000e+000
   H2                    0.000e+000  0.000e+000   -44.244   -44.244     0.000
Na              2.040e-009
   Na+                   2.039e-009  1.954e-009    -8.691    -8.709    -0.018
   NaHCO3                1.000e-012  1.000e-012   -12.000   -12.000     0.000
   NaCO3-                3.083e-013  2.954e-013   -12.511   -12.530    -0.019
   NaOH                  2.454e-015  2.455e-015   -14.610   -14.610     0.000
O(0)            2.562e-004
   O2                    1.281e-004  1.281e-004    -3.893    -3.892     0.000
Zn              1.500e-012
   ZnCO3                 6.182e-013  6.184e-013   -12.209   -12.209     0.000
   Zn+2                  4.520e-013  3.818e-013   -12.345   -12.418    -0.073
   Zn(OH)2               1.737e-013  1.737e-013   -12.760   -12.760     0.000
   Zn(CO3)2-2            1.273e-013  1.073e-013   -12.895   -12.969    -0.074
   ZnOH+                 8.306e-014  7.959e-014   -13.081   -13.099    -0.019
   ZnHCO3+               4.567e-014  4.376e-014   -13.340   -13.359    -0.019
   Zn(OH)3-              1.090e-016  1.045e-016   -15.963   -15.981    -0.019
   Zn(OH)4-2             3.734e-021  3.148e-021   -20.428   -20.502    -0.074
   ZnCl+                 2.096e-021  2.008e-021   -20.679   -20.697    -0.019
   ZnCl2                 4.109e-030  4.111e-030   -29.386   -29.386     0.000
   ZnCl3-                9.408e-039  9.014e-039   -38.027   -38.045    -0.019
   ZnCl4-2               0.000e+000  0.000e+000   -46.980   -47.054    -0.074

------------------------------Saturation indices-------------------------------

	Phase               SI log IAP  log KT

	Aragonite        -0.14   -8.48   -8.34  CaCO3
	Calcite          -0.00   -8.48   -8.48  CaCO3
	CH4(g)         -142.09 -144.95   -2.86  CH4
	CO2(g)           -3.50   -4.97   -1.47  CO2
	H2(g)           -41.09  -44.24   -3.15  H2
	H2O(g)           -1.51   -0.00    1.51  H2O
	Halite          -19.00  -17.42    1.58  NaCl
	O2(g)            -1.00   -3.89   -2.89  O2
	Smithsonite      -7.51  -17.51  -10.00  ZnCO3
	Zn(OH)2(e)       -7.36    4.14   11.50  Zn(OH)2

Using solution 9.	
Using pure phase assemblage 9.	Pp_Assemblage defined in simulation 2.
Using solid solution assemblage 9.	S_S_Assemblage defined in simulation 2.

-------------------------------Phase assemblage--------------------------------

                                                      Moles in assemblage
Phase                  SI log IAP  log KT      Initial       Final       Delta

Halite             -19.00  -17.42    1.58   1.000e+001  1.000e+001 -2.040e-009

--------------------------------Solid solutions--------------------------------


Solid solution                Component        Moles  Delta moles   Mole fract

CaZnCO3                                    0.00e+000
                                Calcite    0.00e+000    1.00e-014    0.00e+000
                            Smithsonite    0.00e+000    1.02e-022    0.00e+000

-----------------------------Solution composition------------------------------

	Elements           Molality       Moles

	C                9.803e-004  9.803e-004
	Ca               4.934e-004  4.934e-004
	Cl               2.040e-009  2.040e-009
	Na               2.040e-009  2.040e-009
	Zn               1.500e-012  1.500e-012

----------------------------Description of solution----------------------------

                                       pH  =   8.279      Charge balance
                                       pe  =  12.268      Adjusted to redox equilibrium
       Specific Conductance (uS/cm, 25 oC) = 96
                          Density (g/cm3)  =   0.99711
                        Activity of water  =   1.000
                           Ionic strength  =  1.463e-003
                       Mass of water (kg)  =  1.000e+000
                 Total alkalinity (eq/kg)  =  9.867e-004
                       Total CO2 (mol/kg)  =  9.803e-004
                      Temperature (deg C)  =  25.000
                  Electrical balance (eq)  = -8.957e-016
 Percent error, 100*(Cat-|An|)/(Cat+|An|)  =  -0.00
                               Iterations  =  16
                                  Total H  = 1.110134e+002
                                  Total O  = 5.550941e+001

----------------------------Distribution of species----------------------------

                                                   Log       Log         Log 
   Species                 Molality    Activity  Molality  Activity     Gamma

   OH-                   1.987e-006  1.903e-006    -5.702    -5.720    -0.019
   H+                    5.476e-009  5.260e-009    -8.262    -8.279    -0.018
   H2O-0.01              7.539e-010  7.539e-010    -9.123    -9.123    -0.000
   H2O                   5.551e+001  1.000e+000     1.744    -0.000     0.000
C(-4)           0.000e+000
   CH4                   0.000e+000  0.000e+000  -144.953  -144.953     0.000
C(4)            9.803e-004
   HCO3-                 9.495e-004  9.104e-004    -3.023    -3.041    -0.018
   CO2                   1.076e-005  1.077e-005    -4.968    -4.968     0.000
   CO3-2                 9.603e-006  8.118e-006    -5.018    -5.091    -0.073
   CaCO3                 5.563e-006  5.565e-006    -5.255    -5.255     0.000
   CaHCO3+               4.943e-006  4.740e-006    -5.306    -5.324    -0.018
   NaHCO3                1.000e-012  1.000e-012   -12.000   -12.000     0.000
   ZnCO3                 6.182e-013  6.184e-013   -12.209   -12.209     0.000
   NaCO3-                3.083e-013  2.954e-013   -12.511   -12.530    -0.019
   Zn(CO3)2-2            1.273e-013  1.073e-013   -12.895   -12.969    -0.074
   ZnHCO3+               4.567e-014  4.376e-014   -13.340   -13.359    -0.019
Ca              4.934e-004
   Ca+2                  4.829e-004  4.081e-004    -3.316    -3.389    -0.073
   CaCO3                 5.563e-006  5.565e-006    -5.255    -5.255     0.000
   CaHCO3+               4.943e-006  4.740e-006    -5.306    -5.324    -0.018
   CaOH+                 1.344e-008  1.288e-008    -7.872    -7.890    -0.019
Cl              2.040e-009
   Cl-                   2.040e-009  1.955e-009    -8.690    -8.709    -0.019
   ZnCl+                 2.096e-021  2.008e-021   -20.679   -20.697    -0.019
   ZnCl2                 4.109e-030  4.111e-030   -29.386   -29.386     0.000
   ZnCl3-                9.408e-039  9.014e-039   -38.027   -38.045    -0.019
   ZnCl4-2               0.000e+000  0.000e+000   -46.980   -47.054    -0.074
H(0)            0.000e+000
   H2                    0.000e+000  0.000e+000   -44.244   -44.244     0.000
Na              2.040e-009
   Na+                   2.039e-009  1.954e-009    -8.691    -8.709    -0.018
   NaHCO3                1.000e-012  1.000e-012   -12.000   -12.000     0.000
   NaCO3-                3.083e-013  2.954e-013   -12.511   -12.530    -0.019
   NaOH                  2.454e-015  2.455e-015   -14.610   -14.610     0.000
O(0)            2.562e-004
   O2                    1.281e-004  1.281e-004    -3.893    -3.892     0.000
Zn              1.500e-012
   ZnCO3                 6.182e-013  6.184e-013   -12.209   -12.209     0.000
   Zn+2                  4.520e-013  3.818e-013   -12.345   -12.418    -0.073
   Zn(OH)2               1.737e-013  1.737e-013   -12.760   -12.760     0.000
   Zn(CO3)2-2            1.273e-013  1.073e-013   -12.895   -12.969    -0.074
   ZnOH+                 8.306e-014  7.959e-014   -13.081   -13.099    -0.019
   ZnHCO3+               4.567e-014  4.376e-014   -13.340   -13.359    -0.019
   Zn(OH)3-              1.090e-016  1.045e-016   -15.963   -15.981    -0.019
   Zn(OH)4-2             3.734e-021  3.148e-021   -20.428   -20.502    -0.074
   ZnCl+                 2.096e-021  2.008e-021   -20.679   -20.697    -0.019
   ZnCl2                 4.109e-030  4.111e-030   -29.386   -29.386     0.000
   ZnCl3-                9.408e-039  9.014e-039   -38.027   -38.045    -0.019
   ZnCl4-2               0.000e+000  0.000e+000   -46.980   -47.054    -0.074

------------------------------Saturation indices-------------------------------

	Phase               SI log IAP  log KT

	Aragonite        -0.14   -8.48   -8.34  CaCO3
	Calcite          -0.00   -8.48   -8.48  CaCO3
	CH4(g)         -142.09 -144.95   -2.86  CH4
	CO2(g)           -3.50   -4.97   -1.47  CO2
	H2(g)           -41.09  -44.24   -3.15  H2
	H2O(g)           -1.51   -0.00    1.51  H2O
	Halite          -19.00  -17.42    1.58  NaCl
	O2(g)            -1.00   -3.89   -2.89  O2
	Smithsonite      -7.51  -17.51  -10.00  ZnCO3
	Zn(OH)2(e)       -7.36    4.14   11.50  Zn(OH)2

Using solution 10.	
Using pure phase assemblage 10.	Pp_Assemblage defined in simulation 2.
Using solid solution assemblage 10.	S_S_Assemblage defined in simulation 2.

-------------------------------Phase assemblage--------------------------------

                                                      Moles in assemblage
Phase                  SI log IAP  log KT      Initial       Final       Delta

Halite             -19.00  -17.42    1.58   1.000e+001  1.000e+001 -2.040e-009

--------------------------------Solid solutions--------------------------------


Solid solution                Component        Moles  Delta moles   Mole fract

CaZnCO3                                    0.00e+000
                                Calcite    0.00e+000    1.00e-014    0.00e+000
                            Smithsonite    0.00e+000    1.02e-022    0.00e+000

-----------------------------Solution composition------------------------------

	Elements           Molality       Moles

	C                9.803e-004  9.803e-004
	Ca               4.934e-004  4.934e-004
	Cl               2.040e-009  2.040e-009
	Na               2.040e-009  2.040e-009
	Zn               1.500e-012  1.500e-012

----------------------------Description of solution----------------------------

                                       pH  =   8.279      Charge balance
                                       pe  =  12.268      Adjusted to redox equilibrium
       Specific Conductance (uS/cm, 25 oC) = 96
                          Density (g/cm3)  =   0.99711
                        Activity of water  =   1.000
                           Ionic strength  =  1.463e-003
                       Mass of water (kg)  =  1.000e+000
                 Total alkalinity (eq/kg)  =  9.867e-004
                       Total CO2 (mol/kg)  =  9.803e-004
                      Temperature (deg C)  =  25.000
                  Electrical balance (eq)  = -8.957e-016
 Percent error, 100*(Cat-|An|)/(Cat+|An|)  =  -0.00
                               Iterations  =  16
                                  Total H  = 1.110134e+002
                                  Total O  = 5.550941e+001

----------------------------Distribution of species----------------------------

                                                   Log       Log         Log 
   Species                 Molality    Activity  Molality  Activity     Gamma

   OH-                   1.987e-006  1.903e-006    -5.702    -5.720    -0.019
   H+                    5.476e-009  5.260e-009    -8.262    -8.279    -0.018
   H2O-0.01              7.539e-010  7.539e-010    -9.123    -9.123    -0.000
   H2O                   5.551e+001  1.000e+000     1.744    -0.000     0.000
C(-4)           0.000e+000
   CH4                   0.000e+000  0.000e+000  -144.953  -144.953     0.000
C(4)            9.803e-004
   HCO3-                 9.495e-004  9.104e-004    -3.023    -3.041    -0.018
   CO2                   1.076e-005  1.077e-005    -4.968    -4.968     0.000
   CO3-2                 9.603e-006  8.118e-006    -5.018    -5.091    -0.073
   CaCO3                 5.563e-006  5.565e-006    -5.255    -5.255     0.000
   CaHCO3+               4.943e-006  4.740e-006    -5.306    -5.324    -0.018
   NaHCO3                1.000e-012  1.000e-012   -12.000   -12.000     0.000
   ZnCO3                 6.182e-013  6.184e-013   -12.209   -12.209     0.000
   NaCO3-                3.083e-013  2.954e-013   -12.511   -12.530    -0.019
   Zn(CO3)2-2            1.273e-013  1.073e-013   -12.895   -12.969    -0.074
   ZnHCO3+               4.567e-014  4.376e-014   -13.340   -13.359    -0.019
Ca              4.934e-004
   Ca+2                  4.829e-004  4.081e-004    -3.316    -3.389    -0.073
   CaCO3                 5.563e-006  5.565e-006    -5.255    -5.255     0.000
   CaHCO3+               4.943e-006  4.740e-006    -5.306    -5.324    -0.018
   CaOH+                 1.344e-008  1.288e-008    -7.872    -7.890    -0.019
Cl              2.040e-009
   Cl-                   2.040e-009  1.955e-009    -8.690    -8.709    -0.019
   ZnCl+                 2.096e-021  2.008e-021   -20.679   -20.697    -0.019
   ZnCl2                 4.109e-030  4.111e-030   -29.386   -29.386     0.000
   ZnCl3-                9.408e-039  9.014e-039   -38.027   -38.045    -0.019
   ZnCl4-2               0.000e+000  0.000e+000   -46.980   -47.054    -0.074
H(0)            0.000e+000
   H2                    0.000e+000  0.000e+000   -44.244   -44.244     0.000
Na              2.040e-009
   Na+                   2.039e-009  1.954e-009    -8.691    -8.709    -0.018
   NaHCO3                1.000e-012  1.000e-012   -12.000   -12.000     0.000
   NaCO3-                3.083e-013  2.954e-013   -12.511   -12.530    -0.019
   NaOH                  2.454e-015  2.455e-015   -14.610   -14.610     0.000
O(0)            2.562e-004
   O2                    1.281e-004  1.281e-004    -3.893    -3.892     0.000
Zn              1.500e-012
   ZnCO3                 6.182e-013  6.184e-013   -12.209   -12.209     0.000
   Zn+2                  4.520e-013  3.818e-013   -12.345   -12.418    -0.073
   Zn(OH)2               1.737e-013  1.737e-013   -12.760   -12.760     0.000
   Zn(CO3)2-2            1.273e-013  1.073e-013   -12.895   -12.969    -0.074
   ZnOH+                 8.306e-014  7.959e-014   -13.081   -13.099    -0.019
   ZnHCO3+               4.567e-014  4.376e-014   -13.340   -13.359    -0.019
   Zn(OH)3-              1.090e-016  1.045e-016   -15.963   -15.981    -0.019
   Zn(OH)4-2             3.734e-021  3.148e-021   -20.428   -20.502    -0.074
   ZnCl+                 2.096e-021  2.008e-021   -20.679   -20.697    -0.019
   ZnCl2                 4.109e-030  4.111e-030   -29.386   -29.386     0.000
   ZnCl3-                9.408e-039  9.014e-039   -38.027   -38.045    -0.019
   ZnCl4-2               0.000e+000  0.000e+000   -46.980   -47.054    -0.074

------------------------------Saturation indices-------------------------------

	Phase               SI log IAP  log KT

	Aragonite        -0.14   -8.48   -8.34  CaCO3
	Calcite          -0.00   -8.48   -8.48  CaCO3
	CH4(g)         -142.09 -144.95   -2.86  CH4
	CO2(g)           -3.50   -4.97   -1.47  CO2
	H2(g)           -41.09  -44.24   -3.15  H2
	H2O(g)           -1.51   -0.00    1.51  H2O
	Halite          -19.00  -17.42    1.58  NaCl
	O2(g)            -1.00   -3.89   -2.89  O2
	Smithsonite      -7.51  -17.51  -10.00  ZnCO3
	Zn(OH)2(e)       -7.36    4.14   11.50  Zn(OH)2

Transport step   1.

Using solution 1.	Solution after simulation 3.
Using pure phase assemblage 1.	Pure-phase assemblage after simulation 3.
Using solid solution assemblage 1.	Solid solution assemblage after simulation 3.
Using kinetics 1.	

Kinetics 1.	

	Time:      3600 seconds
	Time step: 3600 seconds

	Rate name       Delta Moles Total Moles   Reactant        Coefficient

	CO2_escape      -1.350e-004  9.999e-001   CO2                      -1

-------------------------------Phase assemblage--------------------------------

                                                      Moles in assemblage
Phase                  SI log IAP  log KT      Initial       Final       Delta

Halite             -19.00  -17.42    1.58   1.000e+001  1.000e+001 -2.096e-009

--------------------------------Solid solutions--------------------------------


Solid solution                Component        Moles  Delta moles   Mole fract

CaZnCO3                                    9.22e-005
                                Calcite    9.22e-005    9.22e-005    1.00e+000
                            Smithsonite    3.30e-008    3.30e-008    3.58e-004

-----------------------------Solution composition------------------------------

	Elements           Molality       Moles

	C                3.029e-003  3.029e-003
	Ca               1.408e-003  1.408e-003
	Cl               2.096e-009  2.096e-009
	Na               2.096e-009  2.096e-009
	Zn               1.467e-006  1.467e-006

----------------------------Description of solution----------------------------

                                       pH  =   7.420      Charge balance
                                       pe  =  13.127      Adjusted to redox equilibrium
       Specific Conductance (uS/cm, 25 oC) = 264
                          Density (g/cm3)  =   0.99723
                        Activity of water  =   1.000
                           Ionic strength  =  4.140e-003
                       Mass of water (kg)  =  1.000e+000
                 Total alkalinity (eq/kg)  =  2.819e-003
                       Total CO2 (mol/kg)  =  3.029e-003
                      Temperature (deg C)  =  25.000
                  Electrical balance (eq)  = -5.592e-012
 Percent error, 100*(Cat-|An|)/(Cat+|An|)  =  -0.00
                               Iterations  =  38
                                  Total H  = 1.110154e+002
                                  Total O  = 5.551543e+001

----------------------------Distribution of species----------------------------

                                                   Log       Log         Log 
   Species                 Molality    Activity  Molality  Activity     Gamma

   OH-                   2.823e-007  2.631e-007    -6.549    -6.580    -0.031
   H+                    4.053e-008  3.804e-008    -7.392    -7.420    -0.028
   H2O-0.01              7.391e-010  7.391e-010    -9.131    -9.131    -0.000
   H2O                   5.551e+001  9.999e-001     1.744    -0.000     0.000
C(-4)           0.000e+000
   CH4                   0.000e+000  0.000e+000  -143.642  -143.641     0.000
C(4)            3.029e-003
   HCO3-                 2.761e-003  2.580e-003    -2.559    -2.588    -0.029
   CO2                   2.205e-004  2.207e-004    -3.657    -3.656     0.000
   CaHCO3+               3.667e-005  3.427e-005    -4.436    -4.465    -0.029
   CaCO3                 5.558e-006  5.563e-006    -5.255    -5.255     0.000
   CO3-2                 4.171e-006  3.181e-006    -5.380    -5.497    -0.118
   ZnCO3                 3.888e-007  3.891e-007    -6.410    -6.410     0.000
   ZnHCO3+               2.135e-007  1.992e-007    -6.671    -6.701    -0.030
   Zn(CO3)2-2            3.494e-008  2.646e-008    -7.457    -7.577    -0.121
[...]

                                                      Moles in assemblage
Phase                  SI log IAP  log KT      Initial       Final       Delta

Halite             -19.00  -17.42    1.58   1.000e+001  1.000e+001  3.224e-012

--------------------------------Solid solutions--------------------------------


Solid solution                Component        Moles  Delta moles   Mole fract

CaZnCO3                                    1.27e-004
                                Calcite    1.27e-004    4.22e-005    1.00e+000
                            Smithsonite    5.41e-008    1.80e-008    4.28e-004

-----------------------------Solution composition------------------------------

	Elements           Molality       Moles

	C                1.146e-003  1.146e-003
	Ca               5.719e-004  5.719e-004
	Cl               2.047e-009  2.047e-009
	Na               2.047e-009  2.047e-009
	Zn               1.126e-006  1.126e-006

----------------------------Description of solution----------------------------

                                       pH  =   8.154      Charge balance
                                       pe  =  12.393      Adjusted to redox equilibrium
       Specific Conductance (uS/cm, 25 oC) = 111
                          Density (g/cm3)  =   0.99712
                        Activity of water  =   1.000
                           Ionic strength  =  1.696e-003
                       Mass of water (kg)  =  1.000e+000
                 Total alkalinity (eq/kg)  =  1.146e-003
                       Total CO2 (mol/kg)  =  1.146e-003
                      Temperature (deg C)  =  25.000
                  Electrical balance (eq)  =  1.286e-012
 Percent error, 100*(Cat-|An|)/(Cat+|An|)  =   0.00
                               Iterations  =  21
                                  Total H  = 1.110154e+002
                                  Total O  = 5.551083e+001

----------------------------Distribution of species----------------------------

                                                   Log       Log         Log 
   Species                 Molality    Activity  Molality  Activity     Gamma

   OH-                   1.495e-006  1.427e-006    -5.825    -5.845    -0.020
   H+                    7.322e-009  7.014e-009    -8.135    -8.154    -0.019
   H2O-0.01              7.517e-010  7.517e-010    -9.124    -9.124    -0.000
   H2O                   5.551e+001  1.000e+000     1.744    -0.000     0.000
C(-4)           0.000e+000
   CH4                   0.000e+000  0.000e+000  -144.762  -144.762     0.000
C(4)            1.146e-003
   HCO3-                 1.108e-003  1.060e-003    -2.955    -2.975    -0.020
   CO2                   1.670e-005  1.671e-005    -4.777    -4.777     0.000
   CO3-2                 8.482e-006  7.085e-006    -5.072    -5.150    -0.078
   CaHCO3+               6.609e-006  6.318e-006    -5.180    -5.199    -0.020
   CaCO3                 5.560e-006  5.562e-006    -5.255    -5.255     0.000
   ZnCO3                 4.640e-007  4.642e-007    -6.334    -6.333     0.000
   Zn(CO3)2-2            8.443e-008  7.030e-008    -7.073    -7.153    -0.080
   ZnHCO3+               4.585e-008  4.380e-008    -7.339    -7.359    -0.020
   NaHCO3                1.164e-012  1.164e-012   -11.934   -11.934     0.000
   NaCO3-                2.699e-013  2.578e-013   -12.569   -12.589    -0.020
Ca              5.719e-004
   Ca+2                  5.597e-004  4.674e-004    -3.252    -3.330    -0.078
   CaHCO3+               6.609e-006  6.318e-006    -5.180    -5.199    -0.020
   CaCO3                 5.560e-006  5.562e-006    -5.255    -5.255     0.000
   CaOH+                 1.158e-008  1.106e-008    -7.936    -7.956    -0.020
Cl              2.047e-009
   Cl-                   2.047e-009  1.955e-009    -8.689    -8.709    -0.020
   ZnCl+                 1.808e-015  1.727e-015   -14.743   -14.763    -0.020
   ZnCl2                 3.534e-024  3.535e-024   -23.452   -23.452     0.000
   ZnCl3-                8.116e-033  7.753e-033   -32.091   -32.111    -0.020
   ZnCl4-2               0.000e+000  0.000e+000   -41.040   -41.120    -0.080
H(0)            0.000e+000
   H2                    0.000e+000  0.000e+000   -44.244   -44.244     0.000
Na              2.047e-009
   Na+                   2.045e-009  1.954e-009    -8.689    -8.709    -0.020
   NaHCO3                1.164e-012  1.164e-012   -11.934   -11.934     0.000
   NaCO3-                2.699e-013  2.578e-013   -12.569   -12.589    -0.020
   NaOH                  1.840e-015  1.841e-015   -14.735   -14.735     0.000
O(0)            2.560e-004
   O2                    1.280e-004  1.280e-004    -3.893    -3.893     0.000
Zn              1.126e-006
   ZnCO3                 4.640e-007  4.642e-007    -6.334    -6.333     0.000
   Zn+2                  3.935e-007  3.284e-007    -6.405    -6.484    -0.079
   Zn(CO3)2-2            8.443e-008  7.030e-008    -7.073    -7.153    -0.080
   Zn(OH)2               8.399e-008  8.403e-008    -7.076    -7.076     0.000
   ZnOH+                 5.374e-008  5.133e-008    -7.270    -7.290    -0.020
   ZnHCO3+               4.585e-008  4.380e-008    -7.339    -7.359    -0.020
   Zn(OH)3-              3.966e-011  3.788e-011   -10.402   -10.422    -0.020
   ZnCl+                 1.808e-015  1.727e-015   -14.743   -14.763    -0.020
   Zn(OH)4-2             1.028e-015  8.560e-016   -14.988   -15.068    -0.080
   ZnCl2                 3.534e-024  3.535e-024   -23.452   -23.452     0.000
   ZnCl3-                8.116e-033  7.753e-033   -32.091   -32.111    -0.020
   ZnCl4-2               0.000e+000  0.000e+000   -41.040   -41.120    -0.080

------------------------------Saturation indices-------------------------------

	Phase               SI log IAP  log KT

	Aragonite        -0.14   -8.48   -8.34  CaCO3
	Calcite          -0.00   -8.48   -8.48  CaCO3
	CH4(g)         -141.90 -144.76   -2.86  CH4
	CO2(g)           -3.31   -4.78   -1.47  CO2
	H2(g)           -41.09  -44.24   -3.15  H2
	H2O(g)           -1.51   -0.00    1.51  H2O
	Halite          -19.00  -17.42    1.58  NaCl
	O2(g)            -1.00   -3.89   -2.89  O2
	Smithsonite      -1.63  -11.63  -10.00  ZnCO3
	Zn(OH)2(e)       -1.68    9.82   11.50  Zn(OH)2

Using solution 9.	Solution after simulation 3.
Using pure phase assemblage 9.	Pure-phase assemblage after simulation 3.
Using solid solution assemblage 9.	Solid solution assemblage after simulation 3.
Using kinetics 9.	Kinetics defined in simulation 2.

Kinetics 9.	Kinetics defined in simulation 2.

	Time:      36000 seconds
	Time step: 3600 seconds

	Rate name       Delta Moles Total Moles   Reactant        Coefficient

	CO2_escape      -3.126e-005  9.999e-001   CO2                      -1

-------------------------------Phase assemblage--------------------------------

                                                      Moles in assemblage
Phase                  SI log IAP  log KT      Initial       Final       Delta

Halite             -19.00  -17.42    1.58   1.000e+001  1.000e+001  2.240e-012

--------------------------------Solid solutions--------------------------------


Solid solution                Component        Moles  Delta moles   Mole fract

CaZnCO3                                    5.68e-005
                                Calcite    5.67e-005    2.84e-005    1.00e+000
                            Smithsonite    2.41e-008    1.20e-008    4.24e-004

-----------------------------Solution composition------------------------------

	Elements           Molality       Moles

	C                1.087e-003  1.087e-003
	Ca               5.435e-004  5.435e-004
	Cl               2.044e-009  2.044e-009
	Na               2.044e-009  2.044e-009
	Zn               1.113e-006  1.113e-006

----------------------------Description of solution----------------------------

                                       pH  =   8.197      Charge balance
                                       pe  =  12.350      Adjusted to redox equilibrium
       Specific Conductance (uS/cm, 25 oC) = 105
                          Density (g/cm3)  =   0.99712
                        Activity of water  =   1.000
                           Ionic strength  =  1.612e-003
                       Mass of water (kg)  =  1.000e+000
                 Total alkalinity (eq/kg)  =  1.089e-003
                       Total CO2 (mol/kg)  =  1.087e-003
                      Temperature (deg C)  =  25.000
                  Electrical balance (eq)  =  1.310e-012
 Percent error, 100*(Cat-|An|)/(Cat+|An|)  =   0.00
                               Iterations  =  21
                                  Total H  = 1.110154e+002
                                  Total O  = 5.551068e+001

----------------------------Distribution of species----------------------------

                                                   Log       Log         Log 
   Species                 Molality    Activity  Molality  Activity     Gamma

   OH-                   1.647e-006  1.575e-006    -5.783    -5.803    -0.020
   H+                    6.629e-009  6.356e-009    -8.179    -8.197    -0.018
   H2O-0.01              7.525e-010  7.525e-010    -9.124    -9.124    -0.000
   H2O                   5.551e+001  1.000e+000     1.744    -0.000     0.000
C(-4)           0.000e+000
   CH4                   0.000e+000  0.000e+000  -144.827  -144.827     0.000
C(4)            1.087e-003
   HCO3-                 1.051e-003  1.006e-003    -2.978    -2.997    -0.019
   CO2                   1.437e-005  1.438e-005    -4.842    -4.842     0.000
   CO3-2                 8.850e-006  7.423e-006    -5.053    -5.129    -0.076
   CaHCO3+               5.983e-006  5.726e-006    -5.223    -5.242    -0.019
   CaCO3                 5.560e-006  5.562e-006    -5.255    -5.255     0.000
   ZnCO3                 4.606e-007  4.607e-007    -6.337    -6.337     0.000
   Zn(CO3)2-2            8.743e-008  7.312e-008    -7.058    -7.136    -0.078
   ZnHCO3+               4.120e-008  3.940e-008    -7.385    -7.404    -0.019
   NaHCO3                1.105e-012  1.106e-012   -11.957   -11.956     0.000
   NaCO3-                2.825e-013  2.701e-013   -12.549   -12.568    -0.019
Ca              5.435e-004
   Ca+2                  5.320e-004  4.461e-004    -3.274    -3.351    -0.076
   CaHCO3+               5.983e-006  5.726e-006    -5.223    -5.242    -0.019
   CaCO3                 5.560e-006  5.562e-006    -5.255    -5.255     0.000
   CaOH+                 1.218e-008  1.165e-008    -7.914    -7.934    -0.019
Cl              2.044e-009
   Cl-                   2.044e-009  1.955e-009    -8.689    -8.709    -0.020
   ZnCl+                 1.711e-015  1.637e-015   -14.767   -14.786    -0.019
   ZnCl2                 3.348e-024  3.349e-024   -23.475   -23.475     0.000
   ZnCl3-                7.681e-033  7.345e-033   -32.115   -32.134    -0.019
   ZnCl4-2               0.000e+000  0.000e+000   -41.065   -41.143    -0.078
H(0)            0.000e+000
   H2                    0.000e+000  0.000e+000   -44.244   -44.244     0.000
Na              2.044e-009
   Na+                   2.043e-009  1.954e-009    -8.690    -8.709    -0.019
   NaHCO3                1.105e-012  1.106e-012   -11.957   -11.956     0.000
   NaCO3-                2.825e-013  2.701e-013   -12.549   -12.568    -0.019
   NaOH                  2.030e-015  2.031e-015   -14.692   -14.692     0.000
O(0)            2.560e-004
   O2                    1.280e-004  1.280e-004    -3.893    -3.893     0.000
Zn              1.113e-006
   ZnCO3                 4.606e-007  4.607e-007    -6.337    -6.337     0.000
   Zn+2                  3.712e-007  3.111e-007    -6.430    -6.507    -0.077
   Zn(OH)2               9.689e-008  9.693e-008    -7.014    -7.014     0.000
   Zn(CO3)2-2            8.743e-008  7.312e-008    -7.058    -7.136    -0.078
   ZnOH+                 5.612e-008  5.366e-008    -7.251    -7.270    -0.019
   ZnHCO3+               4.120e-008  3.940e-008    -7.385    -7.404    -0.019
   Zn(OH)3-              5.043e-011  4.822e-011   -10.297   -10.317    -0.019
   ZnCl+                 1.711e-015  1.637e-015   -14.767   -14.786    -0.019
   Zn(OH)4-2             1.438e-015  1.202e-015   -14.842   -14.920    -0.078
   ZnCl2                 3.348e-024  3.349e-024   -23.475   -23.475     0.000
   ZnCl3-                7.681e-033  7.345e-033   -32.115   -32.134    -0.019
   ZnCl4-2               0.000e+000  0.000e+000   -41.065   -41.143    -0.078

------------------------------Saturation indices-------------------------------

	Phase               SI log IAP  log KT

	Aragonite        -0.14   -8.48   -8.34  CaCO3
	Calcite          -0.00   -8.48   -8.48  CaCO3
	CH4(g)         -141.97 -144.83   -2.86  CH4
	CO2(g)           -3.37   -4.84   -1.47  CO2
	H2(g)           -41.09  -44.24   -3.15  H2
	H2O(g)           -1.51   -0.00    1.51  H2O
	Halite          -19.00  -17.42    1.58  NaCl
	O2(g)            -1.00   -3.89   -2.89  O2
	Smithsonite      -1.64  -11.64  -10.00  ZnCO3
	Zn(OH)2(e)       -1.61    9.89   11.50  Zn(OH)2

Using solution 10.	Solution after simulation 3.
Using pure phase assemblage 10.	Pure-phase assemblage after simulation 3.
Using solid solution assemblage 10.	Solid solution assemblage after simulation 3.
Using kinetics 10.	Kinetics defined in simulation 2.

Kinetics 10.	Kinetics defined in simulation 2.

	Time:      36000 seconds
	Time step: 3600 seconds

	Rate name       Delta Moles Total Moles   Reactant        Coefficient

	CO2_escape      -2.036e-005  1.000e+000   CO2                      -1

-------------------------------Phase assemblage--------------------------------

                                                      Moles in assemblage
Phase                  SI log IAP  log KT      Initial       Final       Delta

Halite             -19.00  -17.42    1.58   1.000e+001  1.000e+001  1.496e-012

--------------------------------Solid solutions--------------------------------


Solid solution                Component        Moles  Delta moles   Mole fract

CaZnCO3                                    1.86e-005
                                Calcite    1.86e-005    1.86e-005    1.00e+000
                            Smithsonite    7.82e-009    7.82e-009    4.21e-004

-----------------------------Solution composition------------------------------

	Elements           Molality       Moles

	C                1.048e-003  1.048e-003
	Ca               5.250e-004  5.250e-004
	Cl               2.043e-009  2.043e-009
	Na               2.043e-009  2.043e-009
	Zn               1.106e-006  1.106e-006

----------------------------Description of solution----------------------------

                                       pH  =   8.226      Charge balance
                                       pe  =  12.321      Adjusted to redox equilibrium
       Specific Conductance (uS/cm, 25 oC) = 102
                          Density (g/cm3)  =   0.99712
                        Activity of water  =   1.000
                           Ionic strength  =  1.557e-003
                       Mass of water (kg)  =  1.000e+000
                 Total alkalinity (eq/kg)  =  1.052e-003
                       Total CO2 (mol/kg)  =  1.048e-003
                      Temperature (deg C)  =  25.000
                  Electrical balance (eq)  = -1.676e-012
 Percent error, 100*(Cat-|An|)/(Cat+|An|)  =  -0.00
                               Iterations  =  97
                                  Total H  = 1.110154e+002
                                  Total O  = 5.551059e+001

----------------------------Distribution of species----------------------------

                                                   Log       Log         Log 
   Species                 Molality    Activity  Molality  Activity     Gamma

   OH-                   1.761e-006  1.685e-006    -5.754    -5.773    -0.019
   H+                    6.193e-009  5.942e-009    -8.208    -8.226    -0.018
   H2O-0.01              7.530e-010  7.530e-010    -9.123    -9.123    -0.000
   H2O                   5.551e+001  1.000e+000     1.744    -0.000     0.000
C(-4)           0.000e+000
   CH4                   0.000e+000  0.000e+000  -144.872  -144.871     0.000
C(4)            1.048e-003
   HCO3-                 1.014e-003  9.710e-004    -2.994    -3.013    -0.019
   CO2                   1.297e-005  1.297e-005    -4.887    -4.887     0.000
   CO3-2                 9.111e-006  7.664e-006    -5.040    -5.116    -0.075
   CaHCO3+               5.589e-006  5.353e-006    -5.253    -5.271    -0.019
   CaCO3                 5.561e-006  5.563e-006    -5.255    -5.255     0.000
   ZnCO3                 4.575e-007  4.576e-007    -6.340    -6.339     0.000
   Zn(CO3)2-2            8.940e-008  7.498e-008    -7.049    -7.125    -0.076
   ZnHCO3+               3.823e-008  3.658e-008    -7.418    -7.437    -0.019
   NaHCO3                1.067e-012  1.067e-012   -11.972   -11.972     0.000
   NaCO3-                2.914e-013  2.789e-013   -12.536   -12.555    -0.019
Ca              5.250e-004
   Ca+2                  5.138e-004  4.321e-004    -3.289    -3.364    -0.075
   CaHCO3+               5.589e-006  5.353e-006    -5.253    -5.271    -0.019
   CaCO3                 5.561e-006  5.563e-006    -5.255    -5.255     0.000
   CaOH+                 1.261e-008  1.207e-008    -7.899    -7.918    -0.019
Cl              2.043e-009
   Cl-                   2.043e-009  1.955e-009    -8.690    -8.709    -0.019
   ZnCl+                 1.645e-015  1.574e-015   -14.784   -14.803    -0.019
   ZnCl2                 3.221e-024  3.222e-024   -23.492   -23.492     0.000
   ZnCl3-                7.384e-033  7.066e-033   -32.132   -32.151    -0.019
   ZnCl4-2               0.000e+000  0.000e+000   -41.083   -41.160    -0.076
H(0)            0.000e+000
   H2                    0.000e+000  0.000e+000   -44.244   -44.244     0.000
Na              2.043e-009
   Na+                   2.042e-009  1.954e-009    -8.690    -8.709    -0.019
   NaHCO3                1.067e-012  1.067e-012   -11.972   -11.972     0.000
   NaCO3-                2.914e-013  2.789e-013   -12.536   -12.555    -0.019
   NaOH                  2.172e-015  2.173e-015   -14.663   -14.663     0.000
O(0)            2.560e-004
   O2                    1.280e-004  1.280e-004    -3.893    -3.893     0.000
Zn              1.106e-006
   ZnCO3                 4.575e-007  4.576e-007    -6.340    -6.339     0.000
   Zn+2                  3.561e-007  2.993e-007    -6.448    -6.524    -0.076
   Zn(OH)2               1.067e-007  1.067e-007    -6.972    -6.972     0.000
   Zn(CO3)2-2            8.940e-008  7.498e-008    -7.049    -7.125    -0.076
   ZnOH+                 5.771e-008  5.523e-008    -7.239    -7.258    -0.019
   ZnHCO3+               3.823e-008  3.658e-008    -7.418    -7.437    -0.019
   Zn(OH)3-              5.934e-011  5.679e-011   -10.227   -10.246    -0.019
   Zn(OH)4-2             1.806e-015  1.515e-015   -14.743   -14.820    -0.076
   ZnCl+                 1.645e-015  1.574e-015   -14.784   -14.803    -0.019
   ZnCl2                 3.221e-024  3.222e-024   -23.492   -23.492     0.000
   ZnCl3-                7.384e-033  7.066e-033   -32.132   -32.151    -0.019
   ZnCl4-2               0.000e+000  0.000e+000   -41.083   -41.160    -0.076

------------------------------Saturation indices-------------------------------

	Phase               SI log IAP  log KT

	Aragonite        -0.14   -8.48   -8.34  CaCO3
	Calcite          -0.00   -8.48   -8.48  CaCO3
	CH4(g)         -142.01 -144.87   -2.86  CH4
	CO2(g)           -3.42   -4.89   -1.47  CO2
	H2(g)           -41.09  -44.24   -3.15  H2
	H2O(g)           -1.51   -0.00    1.51  H2O
	Halite          -19.00  -17.42    1.58  NaCl
	O2(g)            -1.00   -3.89   -2.89  O2
	Smithsonite      -1.64  -11.64  -10.00  ZnCO3
	Zn(OH)2(e)       -1.57    9.93   11.50  Zn(OH)2

------------------
End of simulation.
------------------

------------------------------------
Reading input data for simulation 4.
------------------------------------

-----------
End of run.
-----------

