   Input file: surf_transport
  Output file: surf_transport.out
Database file: Tipping&Hurley.dat

------------------
Reading data base.
------------------

	DATABASE C:\Program Files (x86)\Phreeqc Interactive 2.16.3926\bin\phreeqc.dat
	SOLUTION_MASTER_SPECIES
	SOLUTION_SPECIES
	PHASES
	EXCHANGE_MASTER_SPECIES
	EXCHANGE_SPECIES
	SURFACE_MASTER_SPECIES
	SURFACE_SPECIES
	SURFACE_MASTER_SPECIES
	SURFACE_SPECIES
	END
------------------------------------
Reading input data for simulation 1.
------------------------------------

	DATABASE Tipping&Hurley.dat
	SOLUTION 0-1
	    temp      25
	    pH        7
	    pe        4
	    redox     pe
	    units     mol/kgw
	    density   1
	    Na        0
	    Cl        2e-006
	    Cd        1e-006
	    water    1 # kg
	SURFACE 0-1
	    equilibrate with solution 0
	    H_a        2e-006    46500     0.007         Dw 1e-005
	    H_b        4.97e-006
	    H_c        4.97e-006
	    H_d        4.97e-006
	    H_e        2.483e-006
	    H_f        2.483e-006
	    H_g        2.483e-006
	    H_h        2.483e-006
	    H_ab       8.278e-007
	    H_ad       8.278e-007
	    H_af       8.278e-007
	    H_ah       8.278e-007
	    H_bc       8.278e-007
	    H_be       8.278e-007
	    H_bg       8.278e-007
	    H_cd       8.278e-007
	    H_cf       8.278e-007
	    H_ch       8.278e-007
	    H_de       8.278e-007
	    H_dg       8.278e-007
	    donnan 1e-012
	SOLUTION 2-10
	    temp      25
	    pH        7
	    pe        4
	    redox     pe
	    units     mmol/kgw
	    density   1
	    water    1 # kg
	PRINT
	    echo_input            false
WARNING: No dispersivities were read; disp = 0 assumed.
