   Input file: surf_kin_related
  Output file: surf_kin_related.out
Database file: ../database/phreeqc.dat

------------------
Reading data base.
------------------

	SOLUTION_MASTER_SPECIES
	SOLUTION_SPECIES
	PHASES
	EXCHANGE_MASTER_SPECIES
	EXCHANGE_SPECIES
	SURFACE_MASTER_SPECIES
	SURFACE_SPECIES
	RATES
	END
------------------------------------
Reading input data for simulation 1.
------------------------------------

	DATABASE ../database/phreeqc.dat
	KNOBS
		convergence_tolerance	1e-12
	RATES
	Pyrolusite
		start
	20      rem   1 hour half life
	40	moles = log(0.5) / 3600 * m * time
	50      if (moles > m) then moles = m
	60      rem print -moles
	200	save -moles
		end
	SOLUTION 1
		pH	7.0
		pe	8.0
		temp	20.0
		Ca	4.5
		Cl	9.0	charge
	SOLUTION 0 # FeCl2 injected solution
		pH	6.0
		pe	0.0
		temp	20.0
		Fe	15.5   # Analyzed: 14.55 
		Cl	31.	charge
		Mn	1e-8
		Al	1.e-8
	SURFACE 1
		Hfo_wOH    pyrolusite  		kine	0.1
		Hfo_sOH    pyrolusite  		kine	.01	500
	KINETICS 1
		Pyrolusite
			formula MnO2H2O 1.0 NaF 1.0
			m	1
		steps	3600
		step_divide	100
	USE solution 0
	END
-------------------------------------------
Beginning of initial solution calculations.
-------------------------------------------

Initial solution 0.	

-----------------------------Solution composition------------------------------

	Elements           Molality       Moles

	Al               1.000e-011  1.000e-011
	Cl               3.100e-002  3.100e-002  Charge balance
	Fe               1.550e-002  1.550e-002
	Mn               1.000e-011  1.000e-011

----------------------------Description of solution----------------------------

                                       pH  =   6.000    
                                       pe  =   0.000    
       Specific Conductance (uS/cm, 25 oC) = 3295
                          Density (g/cm3)  =   0.99960
                        Activity of water  =   0.999
                           Ionic strength  =  4.587e-002
                       Mass of water (kg)  =  1.000e+000
                 Total alkalinity (eq/kg)  =  8.094e-007
                    Total carbon (mol/kg)  =  0.000e+000
                       Total CO2 (mol/kg)  =  0.000e+000
                      Temperature (deg C)  =  20.000
                  Electrical balance (eq)  = -8.947e-017
 Percent error, 100*(Cat-|An|)/(Cat+|An|)  =  -0.00
                               Iterations  =   9
                                  Total H  = 1.110124e+002
                                  Total O  = 5.550622e+001

----------------------------Distribution of species----------------------------

                                                   Log       Log         Log 
   Species                 Molality    Activity  Molality  Activity     Gamma

   H+                    1.165e-006  1.000e-006    -5.934    -6.000    -0.066
   OH-                   8.286e-009  6.784e-009    -8.082    -8.169    -0.087
   H2O                   5.551e+001  9.992e-001     1.744    -0.000     0.000
Al              1.000e-011
   Al(OH)2+              5.864e-012  4.853e-012   -11.232   -11.314    -0.082
   AlOH+2                2.070e-012  9.715e-013   -11.684   -12.013    -0.329
   Al(OH)4-              1.046e-012  8.654e-013   -11.981   -12.063    -0.082
   Al+3                  5.374e-013  1.360e-013   -12.270   -12.867    -0.597
   Al(OH)3               4.832e-013  4.883e-013   -12.316   -12.311     0.005
Cl              3.100e-002
   Cl-                   3.068e-002  2.516e-002    -1.513    -1.599    -0.086
   FeCl+                 3.160e-004  2.615e-004    -3.500    -3.582    -0.082
   MnCl+                 5.784e-013  4.787e-013   -12.238   -12.320    -0.082
   MnCl2                 5.203e-015  5.258e-015   -14.284   -14.279     0.005
   FeCl+2                7.500e-016  3.520e-016   -15.125   -15.453    -0.329
   FeCl2+                5.616e-017  4.648e-017   -16.251   -16.333    -0.082
   MnCl3-                4.403e-017  3.644e-017   -16.356   -16.438    -0.082
   FeCl3                 1.157e-019  1.169e-019   -18.937   -18.932     0.005
Fe(2)           1.550e-002
   Fe+2                  1.518e-002  7.530e-003    -1.819    -2.123    -0.305
   FeCl+                 3.160e-004  2.615e-004    -3.500    -3.582    -0.082
   FeOH+                 1.966e-006  1.627e-006    -5.706    -5.789    -0.082
Fe(3)           9.360e-010
   Fe(OH)2+              8.579e-010  7.101e-010    -9.067    -9.149    -0.082
   Fe(OH)3               7.246e-011  7.323e-011   -10.140   -10.135     0.005
   FeOH+2                5.546e-012  2.603e-012   -11.256   -11.585    -0.329
   Fe(OH)4-              6.573e-014  5.440e-014   -13.182   -13.264    -0.082
   Fe+3                  2.151e-015  5.442e-016   -14.667   -15.264    -0.597
   FeCl+2                7.500e-016  3.520e-016   -15.125   -15.453    -0.329
   FeCl2+                5.616e-017  4.648e-017   -16.251   -16.333    -0.082
   FeCl3                 1.157e-019  1.169e-019   -18.937   -18.932     0.005
   Fe2(OH)2+4            4.639e-021  2.250e-022   -20.334   -21.648    -1.314
   Fe3(OH)4+5            6.037e-027  5.336e-029   -26.219   -28.273    -2.054
H(0)            1.474e-015
   H2                    7.369e-016  7.447e-016   -15.133   -15.128     0.005
Mn(2)           1.000e-011
   Mn+2                  9.416e-012  4.670e-012   -11.026   -11.331    -0.305
   MnCl+                 5.784e-013  4.787e-013   -12.238   -12.320    -0.082
   MnCl2                 5.203e-015  5.258e-015   -14.284   -14.279     0.005
   MnOH+                 9.575e-017  7.925e-017   -16.019   -16.101    -0.082
   MnCl3-                4.403e-017  3.644e-017   -16.356   -16.438    -0.082
Mn(3)           3.768e-037
   Mn+3                  3.768e-037  6.868e-038   -36.424   -37.163    -0.739
O(0)            0.000e+000
   O2                    0.000e+000  0.000e+000   -63.770   -63.766     0.005

------------------------------Saturation indices-------------------------------

	Phase               SI log IAP  log KT

	Al(OH)3(a)       -6.00    5.13   11.13  Al(OH)3
	Fe(OH)3(a)       -2.16    2.73    4.89  Fe(OH)3
	Gibbsite         -3.26    5.13    8.40  Al(OH)3
	Goethite          3.55    2.74   -0.82  FeOOH
	H2(g)           -12.00  -15.13   -3.13  H2
	H2O(g)           -1.64   -0.00    1.64  H2O
	Hausmannite     -48.28   14.01   62.29  Mn3O4
	Hematite          9.09    5.47   -3.62  Fe2O3
	Manganite       -18.67    6.67   25.34  MnOOH
	O2(g)           -60.91  -63.77   -2.85  O2
	Pyrochroite     -14.53    0.67   15.20  Mn(OH)2
	Pyrolusite      -29.53   12.67   42.19  MnO2

Initial solution 1.	

-----------------------------Solution composition------------------------------

	Elements           Molality       Moles

	Ca               4.500e-003  4.500e-003
	Cl               9.000e-003  9.000e-003  Charge balance

----------------------------Description of solution----------------------------

                                       pH  =   7.000    
                                       pe  =   8.000    
       Specific Conductance (uS/cm, 25 oC) = 1082
                          Density (g/cm3)  =   0.99862
                        Activity of water  =   1.000
                           Ionic strength  =  1.350e-002
                       Mass of water (kg)  =  1.000e+000
                 Total alkalinity (eq/kg)  = -2.876e-008
                    Total carbon (mol/kg)  =  0.000e+000
                       Total CO2 (mol/kg)  =  0.000e+000
                      Temperature (deg C)  =  20.000
                  Electrical balance (eq)  = -1.342e-017
 Percent error, 100*(Cat-|An|)/(Cat+|An|)  =  -0.00
                               Iterations  =   9
                                  Total H  = 1.110124e+002
                                  Total O  = 5.550622e+001

----------------------------Distribution of species----------------------------

                                                   Log       Log         Log 
   Species                 Molality    Activity  Molality  Activity     Gamma

   H+                    1.106e-007  1.000e-007    -6.956    -7.000    -0.044
   OH-                   7.647e-008  6.788e-008    -7.116    -7.168    -0.052
   H2O                   5.551e+001  9.998e-001     1.744    -0.000     0.000
Ca              4.500e-003
   Ca+2                  4.500e-003  2.872e-003    -2.347    -2.542    -0.195
   CaOH+                 5.354e-009  4.766e-009    -8.271    -8.322    -0.051
Cl              9.000e-003
   Cl-                   9.000e-003  7.992e-003    -2.046    -2.097    -0.052
H(0)            1.485e-033
   H2                    7.424e-034  7.447e-034   -33.129   -33.128     0.001
O(0)            3.423e-028
   O2                    1.711e-028  1.717e-028   -27.767   -27.765     0.001

------------------------------Saturation indices-------------------------------

	Phase               SI log IAP  log KT

	H2(g)           -30.00  -33.13   -3.13  H2
	H2O(g)           -1.64   -0.00    1.64  H2O
	O2(g)           -24.91  -27.77   -2.85  O2

-----------------------------------------
Beginning of batch-reaction calculations.
-----------------------------------------

Reaction step 1.

Using solution 0.	
Using surface 1.	
Using kinetics 1.	Kinetics defined in simulation 1.

Kinetics 1.	Kinetics defined in simulation 1.

	Time step: 3600 seconds

	Rate name       Delta Moles Total Moles   Reactant        Coefficient

	Pyrolusite      -5.000e-001  5.000e-001   MnO2H2O                   1
	                                          NaF                       1

------------------------------Surface composition------------------------------

Hfo           
	 5.029e-004  Surface charge, eq
	 1.941e-001  sigma, C/m**2
	 6.746e-002  psi, V
	-2.670e+000  -F*psi/RT
	 6.922e-002  exp(-F*psi/RT)
	 5.000e+002  specific area, m**2/mol Pyrolusite
	 2.500e+002  m**2 for  5.000e-001 moles of Pyrolusite


Hfo_s         
	 5.000e-003  moles	[0.01 mol/(mol kinetic reactant Pyrolusite)]
	                                   Mole                     Log
	Species               Moles    Fraction    Molality    Molality

	Hfo_sOMn+        4.995e-003       0.999  4.991e-003      -2.302
	Hfo_sO-          4.749e-006       0.001  4.745e-006      -5.324
	Hfo_sOH          8.193e-012       0.000  8.186e-012     -11.087
	Hfo_sOH2+        3.238e-019       0.000  3.236e-019     -18.490
	Hfo_sOFe+        1.586e-029       0.000  1.585e-029     -28.800

Hfo_w         
	 5.000e-002  moles	[0.1 mol/(mol kinetic reactant Pyrolusite)]
	                                   Mole                     Log
	Species               Moles    Fraction    Molality    Molality

	Hfo_wO-          2.724e-002       0.545  2.721e-002      -1.565
	Hfo_wOMn+        2.276e-002       0.455  2.274e-002      -1.643
	Hfo_wOHF-        7.350e-006       0.000  7.344e-006      -5.134
	Hfo_wOH          4.699e-008       0.000  4.695e-008      -7.328
	Hfo_wF           1.945e-013       0.000  1.944e-013     -12.711
	Hfo_wOH2+        1.857e-015       0.000  1.856e-015     -14.732
	Hfo_wOFeOH       1.087e-021       0.000  1.086e-021     -20.964
	Hfo_wOFe+        8.491e-028       0.000  8.484e-028     -27.071

-----------------------------Solution composition------------------------------

	Elements           Molality       Moles

	Al               9.991e-012  1.000e-011
	Cl               3.097e-002  3.100e-002
	F                4.996e-001  5.000e-001
	Fe               1.549e-002  1.550e-002
	Mn               4.718e-001  4.722e-001
	Na               4.996e-001  5.000e-001

----------------------------Description of solution----------------------------

                                       pH  =  13.533      Charge balance
                                       pe  =   8.286      Adjusted to redox equilibrium
       Specific Conductance (uS/cm, 25 oC) = 77521
                          Density (g/cm3)  =   1.04502
                        Activity of water  =   0.964
                           Ionic strength  =  8.884e-001
                       Mass of water (kg)  =  1.001e+000
                 Total alkalinity (eq/kg)  =  9.287e-001
                    Total carbon (mol/kg)  =  0.000e+000
                       Total CO2 (mol/kg)  =  0.000e+000
                      Temperature (deg C)  =  20.000
                  Electrical balance (eq)  = -5.029e-004
 Percent error, 100*(Cat-|An|)/(Cat+|An|)  =  -0.03
                               Iterations  = 435
                                  Total H  = 1.120674e+002
                                  Total O  = 5.700622e+001

----------------------------Distribution of species----------------------------

                                                   Log       Log         Log 
   Species                 Molality    Activity  Molality  Activity     Gamma

   OH-                   3.786e-001  2.235e-001    -0.422    -0.651    -0.229
   H+                    3.914e-014  2.928e-014   -13.407   -13.533    -0.126
   H2O                   5.551e+001  9.642e-001     1.744    -0.016     0.000
Al              9.991e-012
   Al(OH)4-              9.991e-012  7.748e-012   -11.000   -11.111    -0.110
   Al(OH)3               1.081e-019  1.327e-019   -18.966   -18.877     0.089
   AlF6-3                1.722e-024  1.745e-025   -23.764   -24.758    -0.994
   AlF5-2                1.604e-024  5.801e-025   -23.795   -24.237    -0.442
   AlF4-                 1.718e-025  1.332e-025   -24.765   -24.876    -0.110
   Al(OH)2+              5.160e-026  4.001e-026   -25.287   -25.398    -0.110
   AlF3                  1.004e-027  1.231e-027   -26.998   -26.910     0.089
   AlF2+                 4.663e-031  3.615e-031   -30.331   -30.442    -0.110
   AlOH+2                6.723e-034  2.431e-034   -33.172   -33.614    -0.442
   AlF+2                 7.533e-036  2.724e-036   -35.123   -35.565    -0.442
   Al+3                  0.000e+000  0.000e+000   -40.852   -41.986    -1.134
Cl              3.097e-002
   Cl-                   3.091e-002  1.882e-002    -1.510    -1.725    -0.216
   MnCl+                 6.405e-005  4.967e-005    -4.193    -4.304    -0.110
   MnCl2                 3.325e-007  4.080e-007    -6.478    -6.389     0.089
   MnCl3-                2.727e-009  2.114e-009    -8.564    -8.675    -0.110
   FeCl+                 2.446e-031  1.896e-031   -30.612   -30.722    -0.110
   FeCl+2                1.363e-034  4.928e-035   -33.866   -34.307    -0.442
   FeCl2+                6.276e-036  4.867e-036   -35.202   -35.313    -0.110
   FeCl3                 7.463e-039  9.158e-039   -38.127   -38.038     0.089
F               4.996e-001
   F-                    4.606e-001  2.720e-001    -0.337    -0.565    -0.229
   NaF                   3.736e-002  4.584e-002    -1.428    -1.339     0.089
   MnF+                  1.572e-003  1.219e-003    -2.804    -2.914    -0.110
   HF2-                  1.410e-011  1.093e-011   -10.851   -10.961    -0.110
   HF                    8.905e-012  1.093e-011   -11.050   -10.962     0.089
   FeF3                  1.430e-022  1.755e-022   -21.845   -21.756     0.089
   AlF6-3                1.722e-024  1.745e-025   -23.764   -24.758    -0.994
   AlF5-2                1.604e-024  5.801e-025   -23.795   -24.237    -0.442
   FeF2+                 5.341e-025  4.141e-025   -24.272   -24.383    -0.110
   AlF4-                 1.718e-025  1.332e-025   -24.765   -24.876    -0.110
   AlF3                  1.004e-027  1.231e-027   -26.998   -26.910     0.089
   FeF+2                 1.124e-028  4.063e-029   -27.949   -28.391    -0.442
   FeF+                  2.561e-029  1.986e-029   -28.592   -28.702    -0.110
   AlF2+                 4.663e-031  3.615e-031   -30.331   -30.442    -0.110
   AlF+2                 7.533e-036  2.724e-036   -35.123   -35.565    -0.442
Fe(2)           6.711e-026
   FeOH+                 6.705e-026  5.199e-026   -25.174   -25.284    -0.110
   Fe+2                  3.397e-029  7.301e-030   -28.469   -29.137    -0.668
   FeF+                  2.561e-029  1.986e-029   -28.592   -28.702    -0.110
   FeCl+                 2.446e-031  1.896e-031   -30.612   -30.722    -0.110
Fe(3)           1.549e-002
   Fe(OH)4-              1.549e-002  1.201e-002    -1.810    -1.921    -0.110
   Fe(OH)3               3.998e-007  4.906e-007    -6.398    -6.309     0.089
   Fe(OH)2+              1.862e-013  1.443e-013   -12.730   -12.841    -0.110
   FeF3                  1.430e-022  1.755e-022   -21.845   -21.756     0.089
   FeOH+2                4.441e-023  1.606e-023   -22.353   -22.794    -0.442
   FeF2+                 5.341e-025  4.141e-025   -24.272   -24.383    -0.110
   FeF+2                 1.124e-028  4.063e-029   -27.949   -28.391    -0.442
   Fe+3                  1.387e-033  1.019e-034   -32.858   -33.992    -1.134
   FeCl+2                1.363e-034  4.928e-035   -33.866   -34.307    -0.442
   FeCl2+                6.276e-036  4.867e-036   -35.202   -35.313    -0.110
   FeCl3                 7.463e-039  9.158e-039   -38.127   -38.038     0.089
   Fe2(OH)2+4            0.000e+000  0.000e+000   -42.300   -44.067    -1.767
   Fe3(OH)4+5            0.000e+000  0.000e+000   -51.623   -54.384    -2.762
H(0)            0.000e+000
   H2                    0.000e+000  0.000e+000   -46.855   -46.766     0.089
Mn(2)           4.718e-001
   MnOH+                 4.672e-001  3.623e-001    -0.331    -0.441    -0.110
   Mn+2                  3.014e-003  6.479e-004    -2.521    -3.188    -0.668
   MnF+                  1.572e-003  1.219e-003    -2.804    -2.914    -0.110
   MnCl+                 6.405e-005  4.967e-005    -4.193    -4.304    -0.110
   MnCl2                 3.325e-007  4.080e-007    -6.478    -6.389     0.089
   MnCl3-                2.727e-009  2.114e-009    -8.564    -8.675    -0.110
Mn(3)           1.815e-020
   Mn+3                  1.815e-020  1.839e-021   -19.741   -20.735    -0.994
Na              4.996e-001
   Na+                   4.103e-001  2.929e-001    -0.387    -0.533    -0.146
   NaOH                  5.193e-002  6.372e-002    -1.285    -1.196     0.089
   NaF                   3.736e-002  4.584e-002    -1.428    -1.339     0.089
O(0)            4.918e-001
   O2                    2.459e-001  3.017e-001    -0.609    -0.520     0.089

------------------------------Saturation indices-------------------------------

	Phase               SI log IAP  log KT

	Al(OH)3(a)      -12.56   -1.43   11.13  Al(OH)3
	Fe(OH)3(a)        1.67    6.56    4.89  Fe(OH)3
	Gibbsite         -9.83   -1.43    8.40  Al(OH)3
	Goethite          7.40    6.58   -0.82  FeOOH
	H2(g)           -43.64  -46.77   -3.13  H2
	H2O(g)           -1.66   -0.02    1.64  H2O
	Halite           -3.83   -2.26    1.57  NaCl
	Hausmannite      52.92  115.21   62.29  Mn3O4
	Hematite         16.79   13.17   -3.62  Fe2O3
	Manganite        20.33   45.67   25.34  MnOOH
	O2(g)             2.33   -0.52   -2.85  O2
	Pyrochroite       8.65   23.85   15.20  Mn(OH)2
	Pyrolusite       25.29   67.48   42.19  MnO2

------------------
End of simulation.
------------------

------------------------------------
Reading input data for simulation 2.
------------------------------------

-----------
End of run.
-----------

