   Input file: surf_related
  Output file: surf_related.out
Database file: ../database/phreeqc.dat

------------------
Reading data base.
------------------

	SOLUTION_MASTER_SPECIES
	SOLUTION_SPECIES
	PHASES
	EXCHANGE_MASTER_SPECIES
	EXCHANGE_SPECIES
	SURFACE_MASTER_SPECIES
	SURFACE_SPECIES
	RATES
	END
------------------------------------
Reading input data for simulation 1.
------------------------------------

	DATABASE ../database/phreeqc.dat
	knobs
		logfile
	solution 1
	equilibrium_phases 1-2
		goethite	0.0	0.01
	save solution 1-2
	end
-------------------------------------------
Beginning of initial solution calculations.
-------------------------------------------

Initial solution 1.	

-----------------------------Solution composition------------------------------

	Elements           Molality       Moles

	Pure water     

----------------------------Description of solution----------------------------

                                       pH  =   7.000    
                                       pe  =   4.000    
       Specific Conductance (uS/cm, 25 oC) = 0
                          Density (g/cm3)  =   0.99705
                        Activity of water  =   1.000
                           Ionic strength  =  1.001e-007
                       Mass of water (kg)  =  1.000e+000
                 Total alkalinity (eq/kg)  =  1.082e-010
                    Total carbon (mol/kg)  =  0.000e+000
                       Total CO2 (mol/kg)  =  0.000e+000
                      Temperature (deg C)  =  25.000
                  Electrical balance (eq)  = -1.082e-010
 Percent error, 100*(Cat-|An|)/(Cat+|An|)  =  -0.05
                               Iterations  =   0
                                  Total H  = 1.110124e+002
                                  Total O  = 5.550622e+001

----------------------------Distribution of species----------------------------

                                                   Log       Log         Log 
   Species                 Molality    Activity  Molality  Activity     Gamma

   OH-                   1.002e-007  1.001e-007    -6.999    -6.999    -0.000
   H+                    1.001e-007  1.000e-007    -7.000    -7.000    -0.000
   H2O                   5.551e+001  1.000e+000     1.744     0.000     0.000
H(0)            1.416e-025
   H2                    7.079e-026  7.079e-026   -25.150   -25.150     0.000
O(0)            0.000e+000
   O2                    0.000e+000  0.000e+000   -42.080   -42.080     0.000

------------------------------Saturation indices-------------------------------

	Phase               SI log IAP  log KT

	H2(g)           -22.00  -25.15   -3.15  H2
	H2O(g)           -1.51    0.00    1.51  H2O
	O2(g)           -39.19  -42.08   -2.89  O2

-----------------------------------------
Beginning of batch-reaction calculations.
-----------------------------------------

Reaction step 1.

Using solution 1.	
Using pure phase assemblage 1.	

-------------------------------Phase assemblage--------------------------------

                                                      Moles in assemblage
Phase                  SI log IAP  log KT      Initial       Final       Delta

Goethite            -0.00   -1.00   -1.00   1.000e-002  1.000e-002 -5.487e-014

-----------------------------Solution composition------------------------------

	Elements           Molality       Moles

	Fe               5.488e-014  5.488e-014

----------------------------Description of solution----------------------------

                                       pH  =   7.000      Charge balance
                                       pe  =   5.267      Adjusted to redox equilibrium
       Specific Conductance (uS/cm, 25 oC) = 0
                          Density (g/cm3)  =   0.99705
                        Activity of water  =   1.000
                           Ionic strength  =  1.001e-007
                       Mass of water (kg)  =  1.000e+000
                 Total alkalinity (eq/kg)  =  1.083e-010
                    Total carbon (mol/kg)  =  0.000e+000
                       Total CO2 (mol/kg)  =  0.000e+000
                      Temperature (deg C)  =  25.000
                  Electrical balance (eq)  = -1.082e-010
 Percent error, 100*(Cat-|An|)/(Cat+|An|)  =  -0.05
                               Iterations  =  14
                                  Total H  = 1.110124e+002
                                  Total O  = 5.550622e+001

----------------------------Distribution of species----------------------------

                                                   Log       Log         Log 
   Species                 Molality    Activity  Molality  Activity     Gamma

   OH-                   1.001e-007  1.001e-007    -6.999    -7.000    -0.000
   H+                    1.000e-007  1.000e-007    -7.000    -7.000    -0.000
   H2O                   5.551e+001  1.000e+000     1.744    -0.000     0.000
Fe(2)           5.690e-015
   Fe+2                  5.672e-015  5.663e-015   -14.246   -14.247    -0.001
   FeOH+                 1.792e-017  1.791e-017   -16.747   -16.747    -0.000
Fe(3)           4.919e-014
   Fe(OH)3               2.754e-014  2.754e-014   -13.560   -13.560     0.000
   Fe(OH)2+              2.139e-014  2.138e-014   -13.670   -13.670    -0.000
   Fe(OH)4-              2.513e-016  2.512e-016   -15.600   -15.600    -0.000
   FeOH+2                6.466e-018  6.457e-018   -17.189   -17.190    -0.001
   Fe+3                  1.003e-022  1.000e-022   -21.999   -22.000    -0.001
   Fe2(OH)2+4            1.129e-033  1.122e-033   -32.947   -32.950    -0.003
   Fe3(OH)4+5            0.000e+000  0.000e+000   -44.296   -44.300    -0.004
H(0)            4.142e-028
   H2                    2.071e-028  2.071e-028   -27.684   -27.684     0.000
O(0)            1.944e-037
   O2                    9.721e-038  9.721e-038   -37.012   -37.012     0.000

------------------------------Saturation indices-------------------------------

	Phase               SI log IAP  log KT

	Fe(OH)3(a)       -5.89   -1.00    4.89  Fe(OH)3
	Goethite         -0.00   -1.00   -1.00  FeOOH
	H2(g)           -24.53  -27.68   -3.15  H2
	H2O(g)           -1.51   -0.00    1.51  H2O
	Hematite          2.01   -2.00   -4.01  Fe2O3
	O2(g)           -34.12  -37.01   -2.89  O2

------------------
End of simulation.
------------------

------------------------------------
Reading input data for simulation 2.
------------------------------------

	reaction 1
		HCl	1.0
		0.25	moles
	surface 1-2
		Hfo_s	goethite	0.01	50000.
		Hfo_w	goethite	0.1	50000.
		equilibrate	solution 1
	use solution 1
	use equilibrium_phases 1
	use reaction 1
	use surface 1
	save solution 2
	save equilibrium_phases 2
	save surface 2
	end
------------------------------------------------------
Beginning of initial surface-composition calculations.
------------------------------------------------------

Surface 1.	

Hfo           
	 3.184e-007  Surface charge, eq
	 6.144e-005  sigma, C/m**2
	 6.563e-002  psi, V
	-2.555e+000  -F*psi/RT
	 7.772e-002  exp(-F*psi/RT)
	 5.000e+004  specific area, m**2/mol Goethite
	 5.000e+002  m**2 for  1.000e-002 moles of Goethite


Hfo_s         
	 1.000e-004  moles	[0.01 mol/(mol Goethite)]
	                                   Mole                     Log
	Species               Moles    Fraction    Molality    Molality

	Hfo_sOH          7.676e-005       0.768  7.676e-005      -4.115
	Hfo_sOH2+        1.163e-005       0.116  1.163e-005      -4.934
	Hfo_sO-          1.160e-005       0.116  1.160e-005      -4.935
	Hfo_sOFe+        3.791e-014       0.000  3.791e-014     -13.421

Hfo_w         
	 1.000e-003  moles	[0.1 mol/(mol Goethite)]
	                                   Mole                     Log
	Species               Moles    Fraction    Molality    Molality

	Hfo_wOH          7.676e-004       0.768  7.676e-004      -3.115
	Hfo_wOH2+        1.163e-004       0.116  1.163e-004      -3.934
	Hfo_wO-          1.160e-004       0.116  1.160e-004      -3.935
	Hfo_wOFe+        3.538e-015       0.000  3.538e-015     -14.451
	Hfo_wOFeOH       1.225e-015       0.000  1.225e-015     -14.912

-----------------------------------------
Beginning of batch-reaction calculations.
-----------------------------------------

Reaction step 1.

Using solution 1.	Solution after simulation 1.
Using surface 1.	Surface assemblage after simulation 2.
Using pure phase assemblage 1.	
Using reaction 1.	

Reaction 1.	Irreversible reaction defined in simulation 2.

	 2.500e-001 moles of the following reaction have been added:

	                 Relative
	Reactant            moles

	HCl                  1.00000

	                 Relative
	Element             moles
	Cl                   1.00000
	H                    1.00000

-------------------------------Phase assemblage--------------------------------

                                                      Moles in assemblage
Phase                  SI log IAP  log KT      Initial       Final       Delta

Goethite            -0.21   -1.21   -1.00   1.000e-002           0 -1.000e-002

------------------------------Surface composition------------------------------

Hfo           
	 4.014e-026  Surface charge, eq
	undefined  sigma, C/m**2
	 2.639e-002  psi, V
	-1.027e+000  -F*psi/RT
	 3.580e-001  exp(-F*psi/RT)
	 5.000e+004  specific area, m**2/mol Goethite
	 0.000e+000  m**2 for  0.000e+000 moles of Goethite


Hfo_s         
	 0.000e+000  moles	[0.01 mol/(mol Goethite)]
	                                   Mole                     Log
	Species               Moles    Fraction    Molality    Molality

	Hfo_sOH2+        2.007e-026       0.000  2.006e-026     -25.698
	Hfo_sOH          1.658e-032       0.000  1.657e-032     -31.781
	Hfo_sO-          3.136e-040       0.000  3.135e-040     -39.504
	Hfo_sOFe+        3.914e-042       0.000  3.912e-042     -41.408

Hfo_w         
	 0.000e+000  moles	[0.1 mol/(mol Goethite)]
	                                   Mole                     Log
	Species               Moles    Fraction    Molality    Molality

	Hfo_wOH2+        2.007e-026       0.000  2.006e-026     -25.698
	Hfo_wOH          1.658e-032       0.000  1.657e-032     -31.781
	Hfo_wO-          3.136e-040       0.000  3.135e-040     -39.504
	Hfo_wOFe+        3.652e-044       0.000  3.651e-044     -43.438
	Hfo_wOFeOH       1.570e-051       0.000  1.570e-051     -50.804

-----------------------------Solution composition------------------------------

	Elements           Molality       Moles

	Cl               2.499e-001  2.500e-001
	Fe               9.996e-003  1.000e-002

----------------------------Description of solution----------------------------

                                       pH  =   0.761      Charge balance
                                       pe  =  18.523      Adjusted to redox equilibrium
       Specific Conductance (uS/cm, 25 oC) = 81447
                          Density (g/cm3)  =   1.00187
                        Activity of water  =   0.992
                           Ionic strength  =  2.548e-001
                       Mass of water (kg)  =  1.000e+000
                 Total alkalinity (eq/kg)  = -2.399e-001
                    Total carbon (mol/kg)  =  0.000e+000
                       Total CO2 (mol/kg)  =  0.000e+000
                      Temperature (deg C)  =  25.000
                  Electrical balance (eq)  =  3.183e-007
 Percent error, 100*(Cat-|An|)/(Cat+|An|)  =   0.00
                               Iterations  =  20
                                  Total H  = 1.112724e+002
                                  Total O  = 5.552622e+001

----------------------------Distribution of species----------------------------

                                                   Log       Log         Log 
   Species                 Molality    Activity  Molality  Activity     Gamma

   H+                    2.200e-001  1.734e-001    -0.658    -0.761    -0.103
   OH-                   8.328e-014  5.726e-014   -13.079   -13.242    -0.163
   H2O                   5.551e+001  9.920e-001     1.744    -0.003     0.000
Cl              2.499e-001
   Cl-                   2.410e-001  1.672e-001    -0.618    -0.777    -0.159
   FeCl+2                5.523e-003  1.639e-003    -2.258    -2.785    -0.528
   FeCl2+                1.658e-003  1.224e-003    -2.780    -2.912    -0.132
   FeCl3                 1.929e-005  2.046e-005    -4.715    -4.689     0.025
   FeCl+                 3.187e-010  2.352e-010    -9.497    -9.628    -0.132
Fe(2)           3.661e-009
   Fe+2                  3.342e-009  1.019e-009    -8.476    -8.992    -0.516
   FeCl+                 3.187e-010  2.352e-010    -9.497    -9.628    -0.132
   FeOH+                 2.498e-018  1.844e-018   -17.602   -17.734    -0.132
Fe(3)           9.996e-003
   FeCl+2                5.523e-003  1.639e-003    -2.258    -2.785    -0.528
   Fe+3                  2.755e-003  3.246e-004    -2.560    -3.489    -0.929
   FeCl2+                1.658e-003  1.224e-003    -2.780    -2.912    -0.132
   FeOH+2                4.040e-005  1.199e-005    -4.394    -4.921    -0.528
   FeCl3                 1.929e-005  2.046e-005    -4.715    -4.689     0.025
   Fe2(OH)2+4            4.990e-007  3.867e-009    -6.302    -8.413    -2.111
   Fe(OH)2+              3.076e-008  2.270e-008    -7.512    -7.644    -0.132
   Fe3(OH)4+5            3.643e-011  1.834e-014   -10.439   -13.737    -3.298
   Fe(OH)3               1.577e-014  1.673e-014   -13.802   -13.777     0.025
   Fe(OH)4-              1.182e-022  8.725e-023   -21.927   -22.059    -0.132
H(0)            0.000e+000
   H2                    0.000e+000  0.000e+000   -41.743   -41.718     0.025
O(0)            2.108e-009
   O2                    1.054e-009  1.118e-009    -8.977    -8.952     0.025

------------------------------Saturation indices-------------------------------

	Phase               SI log IAP  log KT

	Fe(OH)3(a)       -6.11   -1.22    4.89  Fe(OH)3
	Goethite         -0.21   -1.21   -1.00  FeOOH
	H2(g)           -38.57  -41.72   -3.15  H2
	H2O(g)           -1.51   -0.00    1.51  H2O
	Hematite          1.59   -2.42   -4.01  Fe2O3
	O2(g)            -6.06   -8.95   -2.89  O2

------------------
End of simulation.
------------------

------------------------------------
Reading input data for simulation 3.
------------------------------------

	use solution 2
	use equilibrium_phases 2
	use surface 2
	end
-----------------------------------------
Beginning of batch-reaction calculations.
-----------------------------------------

Reaction step 1.

Using solution 2.	Solution after simulation 2.
Using surface 2.	Surface assemblage after simulation 2.
Using pure phase assemblage 2.	Pure-phase assemblage after simulation 2.

-------------------------------Phase assemblage--------------------------------

                                                      Moles in assemblage
Phase                  SI log IAP  log KT      Initial       Final       Delta

Goethite            -0.21   -1.21   -1.00   0.000e+000           0  0.000e+000

------------------------------Surface composition------------------------------

Hfo           
	 2.422e-024  Surface charge, eq
	undefined  sigma, C/m**2
	 2.639e-002  psi, V
	-1.027e+000  -F*psi/RT
	 3.580e-001  exp(-F*psi/RT)
	 5.000e+004  specific area, m**2/mol Goethite
	 0.000e+000  m**2 for  0.000e+000 moles of Goethite


Hfo_s         
	 0.000e+000  moles	[0.01 mol/(mol Goethite)]
	                                   Mole                     Log
	Species               Moles    Fraction    Molality    Molality

	Hfo_sOH2+        1.211e-024       0.000  1.210e-024     -23.917
	Hfo_sOH          1.000e-030       0.000  9.996e-031     -30.000
	Hfo_sO-          1.892e-038       0.000  1.891e-038     -37.723
	Hfo_sOFe+        2.361e-040       0.000  2.360e-040     -39.627

Hfo_w         
	 0.000e+000  moles	[0.1 mol/(mol Goethite)]
	                                   Mole                     Log
	Species               Moles    Fraction    Molality    Molality

	Hfo_wOH2+        1.211e-024       0.000  1.210e-024     -23.917
	Hfo_wOH          1.000e-030       0.000  9.996e-031     -30.000
	Hfo_wO-          1.892e-038       0.000  1.891e-038     -37.723
	Hfo_wOFe+        2.204e-042       0.000  2.203e-042     -41.657
	Hfo_wOFeOH       9.475e-050       0.000  9.471e-050     -49.024

-----------------------------Solution composition------------------------------

	Elements           Molality       Moles

	Cl               2.499e-001  2.500e-001
	Fe               9.996e-003  1.000e-002

----------------------------Description of solution----------------------------

                                       pH  =   0.761      Charge balance
                                       pe  =  18.523      Adjusted to redox equilibrium
       Specific Conductance (uS/cm, 25 oC) = 81447
                          Density (g/cm3)  =   1.00187
                        Activity of water  =   0.992
                           Ionic strength  =  2.548e-001
                       Mass of water (kg)  =  1.000e+000
                 Total alkalinity (eq/kg)  = -2.399e-001
                    Total carbon (mol/kg)  =  0.000e+000
                       Total CO2 (mol/kg)  =  0.000e+000
                      Temperature (deg C)  =  25.000
                  Electrical balance (eq)  =  3.183e-007
 Percent error, 100*(Cat-|An|)/(Cat+|An|)  =   0.00
                               Iterations  =   1
                                  Total H  = 1.112724e+002
                                  Total O  = 5.552622e+001

----------------------------Distribution of species----------------------------

                                                   Log       Log         Log 
   Species                 Molality    Activity  Molality  Activity     Gamma

   H+                    2.200e-001  1.734e-001    -0.658    -0.761    -0.103
   OH-                   8.328e-014  5.726e-014   -13.079   -13.242    -0.163
   H2O                   5.551e+001  9.920e-001     1.744    -0.003     0.000
Cl              2.499e-001
   Cl-                   2.410e-001  1.672e-001    -0.618    -0.777    -0.159
   FeCl+2                5.523e-003  1.639e-003    -2.258    -2.785    -0.528
   FeCl2+                1.658e-003  1.224e-003    -2.780    -2.912    -0.132
   FeCl3                 1.929e-005  2.046e-005    -4.715    -4.689     0.025
   FeCl+                 3.187e-010  2.352e-010    -9.497    -9.628    -0.132
Fe(2)           3.661e-009
   Fe+2                  3.342e-009  1.019e-009    -8.476    -8.992    -0.516
   FeCl+                 3.187e-010  2.352e-010    -9.497    -9.628    -0.132
   FeOH+                 2.498e-018  1.844e-018   -17.602   -17.734    -0.132
Fe(3)           9.996e-003
   FeCl+2                5.523e-003  1.639e-003    -2.258    -2.785    -0.528
   Fe+3                  2.755e-003  3.246e-004    -2.560    -3.489    -0.929
   FeCl2+                1.658e-003  1.224e-003    -2.780    -2.912    -0.132
   FeOH+2                4.040e-005  1.199e-005    -4.394    -4.921    -0.528
   FeCl3                 1.929e-005  2.046e-005    -4.715    -4.689     0.025
   Fe2(OH)2+4            4.990e-007  3.867e-009    -6.302    -8.413    -2.111
   Fe(OH)2+              3.076e-008  2.270e-008    -7.512    -7.644    -0.132
   Fe3(OH)4+5            3.643e-011  1.834e-014   -10.439   -13.737    -3.298
   Fe(OH)3               1.577e-014  1.673e-014   -13.802   -13.777     0.025
   Fe(OH)4-              1.182e-022  8.725e-023   -21.927   -22.059    -0.132
H(0)            0.000e+000
   H2                    0.000e+000  0.000e+000   -41.743   -41.718     0.025
O(0)            2.108e-009
   O2                    1.054e-009  1.118e-009    -8.977    -8.952     0.025

------------------------------Saturation indices-------------------------------

	Phase               SI log IAP  log KT

	Fe(OH)3(a)       -6.11   -1.22    4.89  Fe(OH)3
	Goethite         -0.21   -1.21   -1.00  FeOOH
	H2(g)           -38.57  -41.72   -3.15  H2
	H2O(g)           -1.51   -0.00    1.51  H2O
	Hematite          1.59   -2.42   -4.01  Fe2O3
	O2(g)            -6.06   -8.95   -2.89  O2

------------------
End of simulation.
------------------

------------------------------------
Reading input data for simulation 4.
------------------------------------

	solution 1
	equilibrium_phases 1
		goethite	0.0	0.0
	reaction 1
		FeCl3	1.0
		0.25	moles
	surface 1
		Hfo_s	goethite	0.01	50000
		Hfo_w	goethite	0.1	50000
		equilibrate	solution 1
	end
-------------------------------------------
Beginning of initial solution calculations.
-------------------------------------------

Initial solution 1.	

-----------------------------Solution composition------------------------------

	Elements           Molality       Moles

	Pure water     

----------------------------Description of solution----------------------------

                                       pH  =   7.000    
                                       pe  =   4.000    
       Specific Conductance (uS/cm, 25 oC) = 0
                          Density (g/cm3)  =   0.99705
                        Activity of water  =   1.000
                           Ionic strength  =  1.001e-007
                       Mass of water (kg)  =  1.000e+000
                 Total alkalinity (eq/kg)  =  1.082e-010
                    Total carbon (mol/kg)  =  0.000e+000
                       Total CO2 (mol/kg)  =  0.000e+000
                      Temperature (deg C)  =  25.000
                  Electrical balance (eq)  = -1.082e-010
 Percent error, 100*(Cat-|An|)/(Cat+|An|)  =  -0.05
                               Iterations  =   0
                                  Total H  = 1.110124e+002
                                  Total O  = 5.550622e+001

----------------------------Distribution of species----------------------------

                                                   Log       Log         Log 
   Species                 Molality    Activity  Molality  Activity     Gamma

   OH-                   1.002e-007  1.001e-007    -6.999    -6.999    -0.000
   H+                    1.001e-007  1.000e-007    -7.000    -7.000    -0.000
   H2O                   5.551e+001  1.000e+000     1.744     0.000     0.000
H(0)            1.416e-025
   H2                    7.079e-026  7.079e-026   -25.150   -25.150     0.000
O(0)            0.000e+000
   O2                    0.000e+000  0.000e+000   -42.080   -42.080     0.000

------------------------------Saturation indices-------------------------------

	Phase               SI log IAP  log KT

	H2(g)           -22.00  -25.15   -3.15  H2
	H2O(g)           -1.51    0.00    1.51  H2O
	O2(g)           -39.19  -42.08   -2.89  O2

------------------------------------------------------
Beginning of initial surface-composition calculations.
------------------------------------------------------

Surface 1.	

Hfo           
	 1.331e-030  Surface charge, eq
	undefined  sigma, C/m**2
	 2.639e-002  psi, V
	-1.027e+000  -F*psi/RT
	 3.580e-001  exp(-F*psi/RT)
	 5.000e+004  specific area, m**2/mol Goethite
	 0.000e+000  m**2 for  0.000e+000 moles of Goethite


Hfo_s         
	 0.000e+000  moles	[0.01 mol/(mol Goethite)]
	                                   Mole                     Log
	Species               Moles    Fraction    Molality    Molality

	Hfo_sOH          1.000e-030       0.000  1.000e-030     -30.000
	Hfo_sOH2+        6.981e-031       0.000  6.981e-031     -30.156
	Hfo_sO-          3.282e-032       0.000  3.282e-032     -31.484

Hfo_w         
	 0.000e+000  moles	[0.1 mol/(mol Goethite)]
	                                   Mole                     Log
	Species               Moles    Fraction    Molality    Molality

	Hfo_wOH          1.000e-030       0.000  1.000e-030     -30.000
	Hfo_wOH2+        6.981e-031       0.000  6.981e-031     -30.156
	Hfo_wO-          3.282e-032       0.000  3.282e-032     -31.484

-----------------------------------------
Beginning of batch-reaction calculations.
-----------------------------------------

Reaction step 1.

Using solution 1.	
Using surface 1.	Surface assemblage after simulation 4.
Using pure phase assemblage 1.	
Using reaction 1.	

Reaction 1.	Irreversible reaction defined in simulation 4.

	 2.500e-001 moles of the following reaction have been added:

	                 Relative
	Reactant            moles

	FeCl3                1.00000

	                 Relative
	Element             moles
	Cl                   3.00000
	Fe                   1.00000

-------------------------------Phase assemblage--------------------------------

                                                      Moles in assemblage
Phase                  SI log IAP  log KT      Initial       Final       Delta

Goethite             0.00   -1.00   -1.00   0.000e+000  1.186e-001  1.186e-001

------------------------------Surface composition------------------------------

Hfo           
	 1.305e-002  Surface charge, eq
	 2.123e-001  sigma, C/m**2
	 7.696e-002  psi, V
	-2.995e+000  -F*psi/RT
	 5.001e-002  exp(-F*psi/RT)
	 5.000e+004  specific area, m**2/mol Goethite
	 5.930e+003  m**2 for  1.186e-001 moles of Goethite


Hfo_s         
	 1.186e-003  moles	[0.01 mol/(mol Goethite)]
	                                   Mole                     Log
	Species               Moles    Fraction    Molality    Molality

	Hfo_sOH2+        1.186e-003       1.000  1.191e-003      -2.924
	Hfo_sOH          4.691e-009       0.000  4.712e-009      -8.327
	Hfo_sO-          4.251e-016       0.000  4.269e-016     -15.370
	Hfo_sOFe+        2.762e-019       0.000  2.773e-019     -18.557

Hfo_w         
	 1.186e-002  moles	[0.1 mol/(mol Goethite)]
	                                   Mole                     Log
	Species               Moles    Fraction    Molality    Molality

	Hfo_wOH2+        1.186e-002       1.000  1.191e-002      -1.924
	Hfo_wOH          4.691e-008       0.000  4.712e-008      -7.327
	Hfo_wO-          4.251e-015       0.000  4.269e-015     -14.370
	Hfo_wOFe+        2.577e-020       0.000  2.588e-020     -19.587
	Hfo_wOFeOH       5.252e-027       0.000  5.275e-027     -26.278

-----------------------------Solution composition------------------------------

	Elements           Molality       Moles

	Cl               7.532e-001  7.500e-001
	Fe               1.320e-001  1.314e-001

----------------------------Description of solution----------------------------

                                       pH  =   0.586      Charge balance
                                       pe  =  18.843      Adjusted to redox equilibrium
       Specific Conductance (uS/cm, 25 oC) = 124879
                          Density (g/cm3)  =   1.01558
                        Activity of water  =   0.982
                           Ionic strength  =  7.247e-001
                       Mass of water (kg)  =  9.957e-001
                 Total alkalinity (eq/kg)  = -6.082e-001
                    Total carbon (mol/kg)  =  0.000e+000
                       Total CO2 (mol/kg)  =  0.000e+000
                      Temperature (deg C)  =  25.000
                  Electrical balance (eq)  = -1.305e-002
 Percent error, 100*(Cat-|An|)/(Cat+|An|)  =  -1.11
                               Iterations  =  27
                                  Total H  = 1.108808e+002
                                  Total O  = 5.526900e+001

----------------------------Distribution of species----------------------------

                                                   Log       Log         Log 
   Species                 Molality    Activity  Molality  Activity     Gamma

   H+                    3.444e-001  2.593e-001    -0.463    -0.586    -0.123
   OH-                   6.279e-014  3.791e-014   -13.202   -13.421    -0.219
   H2O                   5.551e+001  9.817e-001     1.744    -0.008     0.000
Cl              7.532e-001
   Cl-                   5.982e-001  3.703e-001    -0.223    -0.431    -0.208
   FeCl+2                6.304e-002  2.022e-002    -1.200    -1.694    -0.494
   FeCl2+                4.443e-002  3.344e-002    -1.352    -1.476    -0.123
   FeCl3                 1.048e-003  1.238e-003    -2.980    -2.907     0.072
   FeCl+                 1.847e-009  1.390e-009    -8.734    -8.857    -0.123
Fe(2)           1.394e-008
   Fe+2                  1.209e-008  2.720e-009    -7.918    -8.566    -0.648
   FeCl+                 1.847e-009  1.390e-009    -8.734    -8.857    -0.123
   FeOH+                 4.327e-018  3.257e-018   -17.364   -17.487    -0.123
Fe(3)           1.320e-001
   FeCl+2                6.304e-002  2.022e-002    -1.200    -1.694    -0.494
   FeCl2+                4.443e-002  3.344e-002    -1.352    -1.476    -0.123
   Fe+3                  2.329e-002  1.808e-003    -1.633    -2.743    -1.110
   FeCl3                 1.048e-003  1.238e-003    -2.980    -2.907     0.072
   FeOH+2                1.378e-004  4.420e-005    -3.861    -4.355    -0.494
   Fe2(OH)2+4            4.971e-006  5.259e-008    -5.304    -7.279    -1.975
   Fe(OH)2+              7.365e-008  5.543e-008    -7.133    -7.256    -0.123
   Fe3(OH)4+5            7.436e-010  6.090e-013    -9.129   -12.215    -3.087
   Fe(OH)3               2.288e-014  2.704e-014   -13.640   -13.568     0.072
   Fe(OH)4-              1.241e-022  9.338e-023   -21.906   -22.030    -0.123
H(0)            0.000e+000
   H2                    0.000e+000  0.000e+000   -42.080   -42.008     0.072
O(0)            7.054e-009
   O2                    3.527e-009  4.167e-009    -8.453    -8.380     0.072

------------------------------Saturation indices-------------------------------

	Phase               SI log IAP  log KT

	Fe(OH)3(a)       -5.90   -1.01    4.89  Fe(OH)3
	Goethite          0.00   -1.00   -1.00  FeOOH
	H2(g)           -38.86  -42.01   -3.15  H2
	H2O(g)           -1.52   -0.01    1.51  H2O
	Hematite          2.02   -1.99   -4.01  Fe2O3
	O2(g)            -5.49   -8.38   -2.89  O2

------------------
End of simulation.
------------------

------------------------------------
Reading input data for simulation 5.
------------------------------------

	solution 1
	equilibrium_phases 1-2
		goethite	0.0	0.01
	save solution 1-2
	end
-------------------------------------------
Beginning of initial solution calculations.
-------------------------------------------

Initial solution 1.	

-----------------------------Solution composition------------------------------

	Elements           Molality       Moles

	Pure water     

----------------------------Description of solution----------------------------

                                       pH  =   7.000    
                                       pe  =   4.000    
       Specific Conductance (uS/cm, 25 oC) = 0
                          Density (g/cm3)  =   0.99705
                        Activity of water  =   1.000
                           Ionic strength  =  1.001e-007
                       Mass of water (kg)  =  1.000e+000
                 Total alkalinity (eq/kg)  =  1.082e-010
                    Total carbon (mol/kg)  =  0.000e+000
                       Total CO2 (mol/kg)  =  0.000e+000
                      Temperature (deg C)  =  25.000
                  Electrical balance (eq)  = -1.082e-010
 Percent error, 100*(Cat-|An|)/(Cat+|An|)  =  -0.05
                               Iterations  =   0
                                  Total H  = 1.110124e+002
                                  Total O  = 5.550622e+001

----------------------------Distribution of species----------------------------

                                                   Log       Log         Log 
   Species                 Molality    Activity  Molality  Activity     Gamma

   OH-                   1.002e-007  1.001e-007    -6.999    -6.999    -0.000
   H+                    1.001e-007  1.000e-007    -7.000    -7.000    -0.000
   H2O                   5.551e+001  1.000e+000     1.744     0.000     0.000
H(0)            1.416e-025
   H2                    7.079e-026  7.079e-026   -25.150   -25.150     0.000
O(0)            0.000e+000
   O2                    0.000e+000  0.000e+000   -42.080   -42.080     0.000

------------------------------Saturation indices-------------------------------

	Phase               SI log IAP  log KT

	H2(g)           -22.00  -25.15   -3.15  H2
	H2O(g)           -1.51    0.00    1.51  H2O
	O2(g)           -39.19  -42.08   -2.89  O2

-----------------------------------------
Beginning of batch-reaction calculations.
-----------------------------------------

Reaction step 1.

Using solution 1.	
Using pure phase assemblage 1.	

-------------------------------Phase assemblage--------------------------------

                                                      Moles in assemblage
Phase                  SI log IAP  log KT      Initial       Final       Delta

Goethite            -0.00   -1.00   -1.00   1.000e-002  1.000e-002 -5.487e-014

-----------------------------Solution composition------------------------------

	Elements           Molality       Moles

	Fe               5.488e-014  5.488e-014

----------------------------Description of solution----------------------------

                                       pH  =   7.000      Charge balance
                                       pe  =   5.267      Adjusted to redox equilibrium
       Specific Conductance (uS/cm, 25 oC) = 0
                          Density (g/cm3)  =   0.99705
                        Activity of water  =   1.000
                           Ionic strength  =  1.001e-007
                       Mass of water (kg)  =  1.000e+000
                 Total alkalinity (eq/kg)  =  1.083e-010
                    Total carbon (mol/kg)  =  0.000e+000
                       Total CO2 (mol/kg)  =  0.000e+000
                      Temperature (deg C)  =  25.000
                  Electrical balance (eq)  = -1.082e-010
 Percent error, 100*(Cat-|An|)/(Cat+|An|)  =  -0.05
                               Iterations  =  14
                                  Total H  = 1.110124e+002
                                  Total O  = 5.550622e+001

----------------------------Distribution of species----------------------------

                                                   Log       Log         Log 
   Species                 Molality    Activity  Molality  Activity     Gamma

   OH-                   1.001e-007  1.001e-007    -6.999    -7.000    -0.000
   H+                    1.000e-007  1.000e-007    -7.000    -7.000    -0.000
   H2O                   5.551e+001  1.000e+000     1.744    -0.000     0.000
Fe(2)           5.690e-015
   Fe+2                  5.672e-015  5.663e-015   -14.246   -14.247    -0.001
   FeOH+                 1.792e-017  1.791e-017   -16.747   -16.747    -0.000
Fe(3)           4.919e-014
   Fe(OH)3               2.754e-014  2.754e-014   -13.560   -13.560     0.000
   Fe(OH)2+              2.139e-014  2.138e-014   -13.670   -13.670    -0.000
   Fe(OH)4-              2.513e-016  2.512e-016   -15.600   -15.600    -0.000
   FeOH+2                6.466e-018  6.457e-018   -17.189   -17.190    -0.001
   Fe+3                  1.003e-022  1.000e-022   -21.999   -22.000    -0.001
   Fe2(OH)2+4            1.129e-033  1.122e-033   -32.947   -32.950    -0.003
   Fe3(OH)4+5            0.000e+000  0.000e+000   -44.296   -44.300    -0.004
H(0)            4.142e-028
   H2                    2.071e-028  2.071e-028   -27.684   -27.684     0.000
O(0)            1.944e-037
   O2                    9.721e-038  9.721e-038   -37.012   -37.012     0.000

------------------------------Saturation indices-------------------------------

	Phase               SI log IAP  log KT

	Fe(OH)3(a)       -5.89   -1.00    4.89  Fe(OH)3
	Goethite         -0.00   -1.00   -1.00  FeOOH
	H2(g)           -24.53  -27.68   -3.15  H2
	H2O(g)           -1.51   -0.00    1.51  H2O
	Hematite          2.01   -2.00   -4.01  Fe2O3
	O2(g)           -34.12  -37.01   -2.89  O2

------------------
End of simulation.
------------------

------------------------------------
Reading input data for simulation 6.
------------------------------------

	reaction 1
		HCl	1.0
		0.25	moles
	surface 1-2
		diff
		Hfo_s	goethite	0.01	50000
		Hfo_w	goethite	0.1	50000
		equilibrate	solution 1
	use solution 1
	use equilibrium_phases 1
	use reaction 1
	use surface 1
	save solution 2
	save equilibrium_phases 2
	save surface 2
	end
------------------------------------------------------
Beginning of initial surface-composition calculations.
------------------------------------------------------

Surface 1.	

Hfo           
	 2.315e-015  Surface + diffuse layer charge, eq
	 3.180e-007  Surface charge, eq
	 6.137e-005  sigma, C/m**2
	 6.563e-002  psi, V
	-2.555e+000  -F*psi/RT
	 7.772e-002  exp(-F*psi/RT)
	 5.000e+004  specific area, m**2/mol Goethite
	 5.000e+002  m**2 for  1.000e-002 moles of Goethite

	Water in diffuse layer: 5.000e-003 kg, 100.0% of total DDL-water.

	Total moles in diffuse layer (excluding water)

	Element       	     Moles
	Fe            	-1.9601e-014
	H             	 1.8064e-007
	O             	 2.4932e-007

Hfo_s         
	 1.000e-004  moles	[0.01 mol/(mol Goethite)]
	                                   Mole                     Log
	Species               Moles    Fraction    Molality    Molality

	Hfo_sOH          7.676e-005       0.768  7.676e-005      -4.115
	Hfo_sOH2+        1.163e-005       0.116  1.163e-005      -4.934
	Hfo_sO-          1.160e-005       0.116  1.160e-005      -4.935
	Hfo_sOFe+        3.791e-014       0.000  3.791e-014     -13.421

Hfo_w         
	 1.000e-003  moles	[0.1 mol/(mol Goethite)]
	                                   Mole                     Log
	Species               Moles    Fraction    Molality    Molality

	Hfo_wOH          7.676e-004       0.768  7.676e-004      -3.115
	Hfo_wOH2+        1.163e-004       0.116  1.163e-004      -3.934
	Hfo_wO-          1.160e-004       0.116  1.160e-004      -3.935
	Hfo_wOFe+        3.538e-015       0.000  3.538e-015     -14.451
	Hfo_wOFeOH       1.225e-015       0.000  1.225e-015     -14.912

-----------------------------------------
Beginning of batch-reaction calculations.
-----------------------------------------

Reaction step 1.

Using solution 1.	Solution after simulation 5.
Using surface 1.	Surface assemblage after simulation 6.
Using pure phase assemblage 1.	
Using reaction 1.	

Reaction 1.	Irreversible reaction defined in simulation 6.

	 2.500e-001 moles of the following reaction have been added:

	                 Relative
	Reactant            moles

	HCl                  1.00000

	                 Relative
	Element             moles
	Cl                   1.00000
	H                    1.00000

-------------------------------Phase assemblage--------------------------------

                                                      Moles in assemblage
Phase                  SI log IAP  log KT      Initial       Final       Delta

Goethite            -0.21   -1.21   -1.00   1.000e-002           0 -1.000e-002

------------------------------Surface composition------------------------------

Hfo           
	 7.828e-026  Surface + diffuse layer charge, eq
	 7.828e-026  Surface charge, eq
	undefined  sigma, C/m**2
	 6.563e-002  psi, V
	-2.555e+000  -F*psi/RT
	 7.772e-002  exp(-F*psi/RT)
	 5.000e+004  specific area, m**2/mol Goethite
	 0.000e+000  m**2 for  0.000e+000 moles of Goethite

	Water in diffuse layer: 0.000e+000 kg,  0.0% of total DDL-water.

	Total moles in diffuse layer (excluding water)

	Element       	     Moles
	Cl            	 0.0000e+000
	Fe            	 0.0000e+000
	H             	 0.0000e+000
	O             	 0.0000e+000

Hfo_s         
	 0.000e+000  moles	[0.01 mol/(mol Goethite)]
	                                   Mole                     Log
	Species               Moles    Fraction    Molality    Molality

	Hfo_sOH2+        3.914e-026       0.000  3.913e-026     -25.408
	Hfo_sOH          1.489e-031       0.000  1.489e-031     -30.827
	Hfo_sO-          1.298e-038       0.000  1.297e-038     -37.887
	Hfo_sOFe+        7.576e-042       0.000  7.574e-042     -41.121

Hfo_w         
	 0.000e+000  moles	[0.1 mol/(mol Goethite)]
	                                   Mole                     Log
	Species               Moles    Fraction    Molality    Molality

	Hfo_wOH2+        3.914e-026       0.000  3.913e-026     -25.408
	Hfo_wOH          1.489e-031       0.000  1.489e-031     -30.827
	Hfo_wO-          1.298e-038       0.000  1.297e-038     -37.887
	Hfo_wOFe+        7.071e-044       0.000  7.068e-044     -43.151
	Hfo_wOFeOH       1.400e-050       0.000  1.400e-050     -49.854

-----------------------------Solution composition------------------------------

	Elements           Molality       Moles

	Cl               2.499e-001  2.500e-001
	Fe               9.996e-003  1.000e-002

----------------------------Description of solution----------------------------

                                       pH  =   0.761      Charge balance
                                       pe  =  18.526      Adjusted to redox equilibrium
       Specific Conductance (uS/cm, 25 oC) = 81447
                          Density (g/cm3)  =   1.00187
                        Activity of water  =   0.992
                           Ionic strength  =  2.548e-001
                       Mass of water (kg)  =  1.000e+000
                 Total alkalinity (eq/kg)  = -2.399e-001
                    Total carbon (mol/kg)  =  0.000e+000
                       Total CO2 (mol/kg)  =  0.000e+000
                      Temperature (deg C)  =  25.000
                  Electrical balance (eq)  = -6.017e-011
 Percent error, 100*(Cat-|An|)/(Cat+|An|)  =  -0.00
                               Iterations  =   8
                                  Total H  = 1.112724e+002
                                  Total O  = 5.552622e+001

----------------------------Distribution of species----------------------------

                                                   Log       Log         Log 
   Species                 Molality    Activity  Molality  Activity     Gamma

   H+                    2.200e-001  1.734e-001    -0.658    -0.761    -0.103
   OH-                   8.328e-014  5.726e-014   -13.079   -13.242    -0.163
   H2O                   5.551e+001  9.920e-001     1.744    -0.003     0.000
Cl              2.499e-001
   Cl-                   2.410e-001  1.672e-001    -0.618    -0.777    -0.159
   FeCl+2                5.523e-003  1.639e-003    -2.258    -2.785    -0.528
   FeCl2+                1.658e-003  1.224e-003    -2.780    -2.912    -0.132
   FeCl3                 1.929e-005  2.046e-005    -4.715    -4.689     0.025
   FeCl+                 3.164e-010  2.335e-010    -9.500    -9.632    -0.132
Fe(2)           3.634e-009
   Fe+2                  3.318e-009  1.012e-009    -8.479    -8.995    -0.516
   FeCl+                 3.164e-010  2.335e-010    -9.500    -9.632    -0.132
   FeOH+                 2.480e-018  1.830e-018   -17.606   -17.737    -0.132
Fe(3)           9.996e-003
   FeCl+2                5.523e-003  1.639e-003    -2.258    -2.785    -0.528
   Fe+3                  2.755e-003  3.246e-004    -2.560    -3.489    -0.929
   FeCl2+                1.658e-003  1.224e-003    -2.780    -2.912    -0.132
   FeOH+2                4.040e-005  1.199e-005    -4.394    -4.921    -0.528
   FeCl3                 1.929e-005  2.046e-005    -4.715    -4.689     0.025
   Fe2(OH)2+4            4.990e-007  3.868e-009    -6.302    -8.413    -2.111
   Fe(OH)2+              3.076e-008  2.270e-008    -7.512    -7.644    -0.132
   Fe3(OH)4+5            3.643e-011  1.834e-014   -10.439   -13.737    -3.298
   Fe(OH)3               1.577e-014  1.673e-014   -13.802   -13.777     0.025
   Fe(OH)4-              1.182e-022  8.725e-023   -21.927   -22.059    -0.132
H(0)            0.000e+000
   H2                    0.000e+000  0.000e+000   -41.750   -41.724     0.025
O(0)            2.171e-009
   O2                    1.086e-009  1.151e-009    -8.964    -8.939     0.025

------------------------------Saturation indices-------------------------------

	Phase               SI log IAP  log KT

	Fe(OH)3(a)       -6.11   -1.22    4.89  Fe(OH)3
	Goethite         -0.21   -1.21   -1.00  FeOOH
	H2(g)           -38.57  -41.72   -3.15  H2
	H2O(g)           -1.51   -0.00    1.51  H2O
	Hematite          1.59   -2.42   -4.01  Fe2O3
	O2(g)            -6.05   -8.94   -2.89  O2

------------------
End of simulation.
------------------

------------------------------------
Reading input data for simulation 7.
------------------------------------

	use solution 2
	use equilibrium_phases 2
	use surface 2
	end
-----------------------------------------
Beginning of batch-reaction calculations.
-----------------------------------------

Reaction step 1.

Using solution 2.	Solution after simulation 6.
Using surface 2.	Surface assemblage after simulation 6.
Using pure phase assemblage 2.	Pure-phase assemblage after simulation 6.

-------------------------------Phase assemblage--------------------------------

                                                      Moles in assemblage
Phase                  SI log IAP  log KT      Initial       Final       Delta

Goethite            -0.21   -1.21   -1.00   0.000e+000           0  0.000e+000

------------------------------Surface composition------------------------------

Hfo           
	 5.257e-025  Surface + diffuse layer charge, eq
	 5.257e-025  Surface charge, eq
	undefined  sigma, C/m**2
	 6.563e-002  psi, V
	-2.555e+000  -F*psi/RT
	 7.772e-002  exp(-F*psi/RT)
	 5.000e+004  specific area, m**2/mol Goethite
	 0.000e+000  m**2 for  0.000e+000 moles of Goethite

	Water in diffuse layer: 0.000e+000 kg,  0.0% of total DDL-water.

	Total moles in diffuse layer (excluding water)

	Element       	     Moles
	Cl            	 0.0000e+000
	Fe            	 0.0000e+000
	H             	 0.0000e+000
	O             	 0.0000e+000

Hfo_s         
	 0.000e+000  moles	[0.01 mol/(mol Goethite)]
	                                   Mole                     Log
	Species               Moles    Fraction    Molality    Molality

	Hfo_sOH2+        2.628e-025       0.000  2.627e-025     -24.580
	Hfo_sOH          1.000e-030       0.000  9.996e-031     -30.000
	Hfo_sO-          8.716e-038       0.000  8.713e-038     -37.060
	Hfo_sOFe+        5.088e-041       0.000  5.086e-041     -40.294

Hfo_w         
	 0.000e+000  moles	[0.1 mol/(mol Goethite)]
	                                   Mole                     Log
	Species               Moles    Fraction    Molality    Molality

	Hfo_wOH2+        2.628e-025       0.000  2.627e-025     -24.580
	Hfo_wOH          1.000e-030       0.000  9.996e-031     -30.000
	Hfo_wO-          8.716e-038       0.000  8.713e-038     -37.060
	Hfo_wOFe+        4.748e-043       0.000  4.747e-043     -42.324
	Hfo_wOFeOH       9.405e-050       0.000  9.402e-050     -49.027

-----------------------------Solution composition------------------------------

	Elements           Molality       Moles

	Cl               2.499e-001  2.500e-001
	Fe               9.996e-003  1.000e-002

----------------------------Description of solution----------------------------

                                       pH  =   0.761      Charge balance
                                       pe  =  18.526      Adjusted to redox equilibrium
       Specific Conductance (uS/cm, 25 oC) = 81447
                          Density (g/cm3)  =   1.00187
                        Activity of water  =   0.992
                           Ionic strength  =  2.548e-001
                       Mass of water (kg)  =  1.000e+000
                 Total alkalinity (eq/kg)  = -2.399e-001
                    Total carbon (mol/kg)  =  0.000e+000
                       Total CO2 (mol/kg)  =  0.000e+000
                      Temperature (deg C)  =  25.000
                  Electrical balance (eq)  = -6.017e-011
 Percent error, 100*(Cat-|An|)/(Cat+|An|)  =  -0.00
                               Iterations  =   1
                                  Total H  = 1.112724e+002
                                  Total O  = 5.552622e+001

----------------------------Distribution of species----------------------------

                                                   Log       Log         Log 
   Species                 Molality    Activity  Molality  Activity     Gamma

   H+                    2.200e-001  1.734e-001    -0.658    -0.761    -0.103
   OH-                   8.328e-014  5.726e-014   -13.079   -13.242    -0.163
   H2O                   5.551e+001  9.920e-001     1.744    -0.003     0.000
Cl              2.499e-001
   Cl-                   2.410e-001  1.672e-001    -0.618    -0.777    -0.159
   FeCl+2                5.523e-003  1.639e-003    -2.258    -2.785    -0.528
   FeCl2+                1.658e-003  1.224e-003    -2.780    -2.912    -0.132
   FeCl3                 1.929e-005  2.046e-005    -4.715    -4.689     0.025
   FeCl+                 3.164e-010  2.335e-010    -9.500    -9.632    -0.132
Fe(2)           3.634e-009
   Fe+2                  3.318e-009  1.012e-009    -8.479    -8.995    -0.516
   FeCl+                 3.164e-010  2.335e-010    -9.500    -9.632    -0.132
   FeOH+                 2.480e-018  1.830e-018   -17.606   -17.737    -0.132
Fe(3)           9.996e-003
   FeCl+2                5.523e-003  1.639e-003    -2.258    -2.785    -0.528
   Fe+3                  2.755e-003  3.246e-004    -2.560    -3.489    -0.929
   FeCl2+                1.658e-003  1.224e-003    -2.780    -2.912    -0.132
   FeOH+2                4.040e-005  1.199e-005    -4.394    -4.921    -0.528
   FeCl3                 1.929e-005  2.046e-005    -4.715    -4.689     0.025
   Fe2(OH)2+4            4.990e-007  3.868e-009    -6.302    -8.413    -2.111
   Fe(OH)2+              3.076e-008  2.270e-008    -7.512    -7.644    -0.132
   Fe3(OH)4+5            3.643e-011  1.834e-014   -10.439   -13.737    -3.298
   Fe(OH)3               1.577e-014  1.673e-014   -13.802   -13.777     0.025
   Fe(OH)4-              1.182e-022  8.725e-023   -21.927   -22.059    -0.132
H(0)            0.000e+000
   H2                    0.000e+000  0.000e+000   -41.750   -41.724     0.025
O(0)            2.171e-009
   O2                    1.086e-009  1.151e-009    -8.964    -8.939     0.025

------------------------------Saturation indices-------------------------------

	Phase               SI log IAP  log KT

	Fe(OH)3(a)       -6.11   -1.22    4.89  Fe(OH)3
	Goethite         -0.21   -1.21   -1.00  FeOOH
	H2(g)           -38.57  -41.72   -3.15  H2
	H2O(g)           -1.51   -0.00    1.51  H2O
	Hematite          1.59   -2.42   -4.01  Fe2O3
	O2(g)            -6.05   -8.94   -2.89  O2

------------------
End of simulation.
------------------

------------------------------------
Reading input data for simulation 8.
------------------------------------

	solution 1
	equilibrium_phases 1
		goethite	0.0	0.0
	reaction 1
		FeCl3	1.0
		0.25	moles
	surface 1
		diff
		Hfo_s	goethite	0.01	50000
		Hfo_w	goethite	0.1	50000
		equilibrate	solution 1
	end
-------------------------------------------
Beginning of initial solution calculations.
-------------------------------------------

Initial solution 1.	

-----------------------------Solution composition------------------------------

	Elements           Molality       Moles

	Pure water     

----------------------------Description of solution----------------------------

                                       pH  =   7.000    
                                       pe  =   4.000    
       Specific Conductance (uS/cm, 25 oC) = 0
                          Density (g/cm3)  =   0.99705
                        Activity of water  =   1.000
                           Ionic strength  =  1.001e-007
                       Mass of water (kg)  =  1.000e+000
                 Total alkalinity (eq/kg)  =  1.082e-010
                    Total carbon (mol/kg)  =  0.000e+000
                       Total CO2 (mol/kg)  =  0.000e+000
                      Temperature (deg C)  =  25.000
                  Electrical balance (eq)  = -1.082e-010
 Percent error, 100*(Cat-|An|)/(Cat+|An|)  =  -0.05
                               Iterations  =   0
                                  Total H  = 1.110124e+002
                                  Total O  = 5.550622e+001

----------------------------Distribution of species----------------------------

                                                   Log       Log         Log 
   Species                 Molality    Activity  Molality  Activity     Gamma

   OH-                   1.002e-007  1.001e-007    -6.999    -6.999    -0.000
   H+                    1.001e-007  1.000e-007    -7.000    -7.000    -0.000
   H2O                   5.551e+001  1.000e+000     1.744     0.000     0.000
H(0)            1.416e-025
   H2                    7.079e-026  7.079e-026   -25.150   -25.150     0.000
O(0)            0.000e+000
   O2                    0.000e+000  0.000e+000   -42.080   -42.080     0.000

------------------------------Saturation indices-------------------------------

	Phase               SI log IAP  log KT

	H2(g)           -22.00  -25.15   -3.15  H2
	H2O(g)           -1.51    0.00    1.51  H2O
	O2(g)           -39.19  -42.08   -2.89  O2

------------------------------------------------------
Beginning of initial surface-composition calculations.
------------------------------------------------------

Surface 1.	

Hfo           
	 3.876e-030  Surface + diffuse layer charge, eq
	 3.876e-030  Surface charge, eq
	undefined  sigma, C/m**2
	 0.000e+000  psi, V
	-0.000e+000  -F*psi/RT
	 1.000e+000  exp(-F*psi/RT)
	 5.000e+004  specific area, m**2/mol Goethite
	 0.000e+000  m**2 for  0.000e+000 moles of Goethite

	Water in diffuse layer: 0.000e+000 kg,  0.0% of total DDL-water.

	Total moles in diffuse layer (excluding water)

	Element       	     Moles
	H             	 0.0000e+000
	O             	 0.0000e+000

Hfo_s         
	 0.000e+000  moles	[0.01 mol/(mol Goethite)]
	                                   Mole                     Log
	Species               Moles    Fraction    Molality    Molality

	Hfo_sOH2+        1.950e-030       0.000  1.950e-030     -29.710
	Hfo_sOH          1.000e-030       0.000  1.000e-030     -30.000
	Hfo_sO-          1.175e-032       0.000  1.175e-032     -31.930

Hfo_w         
	 0.000e+000  moles	[0.1 mol/(mol Goethite)]
	                                   Mole                     Log
	Species               Moles    Fraction    Molality    Molality

	Hfo_wOH2+        1.950e-030       0.000  1.950e-030     -29.710
	Hfo_wOH          1.000e-030       0.000  1.000e-030     -30.000
	Hfo_wO-          1.175e-032       0.000  1.175e-032     -31.930

-----------------------------------------
Beginning of batch-reaction calculations.
-----------------------------------------

Reaction step 1.

Using solution 1.	
Using surface 1.	Surface assemblage after simulation 8.
Using pure phase assemblage 1.	
Using reaction 1.	

Reaction 1.	Irreversible reaction defined in simulation 8.

	 2.500e-001 moles of the following reaction have been added:

	                 Relative
	Reactant            moles

	FeCl3                1.00000

	                 Relative
	Element             moles
	Cl                   3.00000
	Fe                   1.00000

-------------------------------Phase assemblage--------------------------------

                                                      Moles in assemblage
Phase                  SI log IAP  log KT      Initial       Final       Delta

Goethite             0.00   -1.00   -1.00   0.000e+000  1.237e-001  1.237e-001

------------------------------Surface composition------------------------------

Hfo           
	 6.981e-012  Surface + diffuse layer charge, eq
	 1.361e-002  Surface charge, eq
	 2.123e-001  sigma, C/m**2
	 8.278e-002  psi, V
	-3.222e+000  -F*psi/RT
	 3.987e-002  exp(-F*psi/RT)
	 5.000e+004  specific area, m**2/mol Goethite
	 6.187e+003  m**2 for  1.237e-001 moles of Goethite

	Water in diffuse layer: 6.187e-002 kg, 100.0% of total DDL-water.

	Total moles in diffuse layer (excluding water)

	Element       	     Moles
	Cl            	 5.3751e-002
	Fe            	 6.8158e-003
	H             	 1.9708e-002
	O             	 8.3391e-006

Hfo_s         
	 1.237e-003  moles	[0.01 mol/(mol Goethite)]
	                                   Mole                     Log
	Species               Moles    Fraction    Molality    Molality

	Hfo_sOH2+        1.237e-003       1.000  1.243e-003      -2.906
	Hfo_sOH          6.213e-009       0.000  6.241e-009      -8.205
	Hfo_sO-          7.146e-016       0.000  7.178e-016     -15.144
	Hfo_sOFe+        2.918e-019       0.000  2.932e-019     -18.533

Hfo_w         
	 1.237e-002  moles	[0.1 mol/(mol Goethite)]
	                                   Mole                     Log
	Species               Moles    Fraction    Molality    Molality

	Hfo_wOH2+        1.237e-002       1.000  1.243e-002      -1.906
	Hfo_wOH          6.213e-008       0.000  6.241e-008      -7.205
	Hfo_wO-          7.146e-015       0.000  7.178e-015     -14.144
	Hfo_wOFe+        2.724e-020       0.000  2.736e-020     -19.563
	Hfo_wOFeOH       7.052e-027       0.000  7.083e-027     -26.150

-----------------------------Solution composition------------------------------

	Elements           Molality       Moles

	Cl               6.994e-001  6.962e-001
	Fe               1.200e-001  1.194e-001

----------------------------Description of solution----------------------------

                                       pH  =   0.591      Charge balance
                                       pe  =  18.831      Adjusted to redox equilibrium
       Specific Conductance (uS/cm, 25 oC) = 122930
                          Density (g/cm3)  =   1.01422
                        Activity of water  =   0.983
                           Ionic strength  =  6.862e-001
                       Mass of water (kg)  =  9.955e-001
                 Total alkalinity (eq/kg)  = -5.794e-001
                    Total carbon (mol/kg)  =  0.000e+000
                       Total CO2 (mol/kg)  =  0.000e+000
                      Temperature (deg C)  =  25.000
                  Electrical balance (eq)  = -1.082e-010
 Percent error, 100*(Cat-|An|)/(Cat+|An|)  =  -0.00
                               Iterations  =   3
                                  Total H  = 1.108554e+002
                                  Total O  = 5.525872e+001

----------------------------Distribution of species----------------------------

                                                   Log       Log         Log 
   Species                 Molality    Activity  Molality  Activity     Gamma

   H+                    3.396e-001  2.562e-001    -0.469    -0.591    -0.122
   OH-                   6.316e-014  3.840e-014   -13.200   -13.416    -0.216
   H2O                   5.551e+001  9.826e-001     1.744    -0.008     0.000
Cl              6.994e-001
   Cl-                   5.615e-001  3.495e-001    -0.251    -0.457    -0.206
   FeCl+2                5.862e-002  1.838e-002    -1.232    -1.736    -0.504
   FeCl2+                3.835e-002  2.870e-002    -1.416    -1.542    -0.126
   FeCl3                 8.566e-004  1.003e-003    -3.067    -2.999     0.069
   FeCl+                 1.734e-009  1.298e-009    -8.761    -8.887    -0.126
Fe(2)           1.351e-008
   Fe+2                  1.178e-008  2.690e-009    -7.929    -8.570    -0.641
   FeCl+                 1.734e-009  1.298e-009    -8.761    -8.887    -0.126
   FeOH+                 4.360e-018  3.263e-018   -17.360   -17.486    -0.126
Fe(3)           1.200e-001
   FeCl+2                5.862e-002  1.838e-002    -1.232    -1.736    -0.504
   FeCl2+                3.835e-002  2.870e-002    -1.416    -1.542    -0.126
   Fe+3                  2.200e-002  1.742e-003    -1.658    -2.759    -1.101
   FeCl3                 8.566e-004  1.003e-003    -3.067    -2.999     0.069
   FeOH+2                1.375e-004  4.313e-005    -3.862    -4.365    -0.504
   Fe2(OH)2+4            5.176e-006  5.007e-008    -5.286    -7.300    -2.014
   Fe(OH)2+              7.320e-008  5.478e-008    -7.136    -7.261    -0.126
   Fe3(OH)4+5            8.047e-010  5.730e-013    -9.094   -12.242    -3.147
   Fe(OH)3               2.311e-014  2.706e-014   -13.636   -13.568     0.069
   Fe(OH)4-              1.265e-022  9.467e-023   -21.898   -22.024    -0.126
H(0)            0.000e+000
   H2                    0.000e+000  0.000e+000   -42.064   -41.995     0.069
O(0)            6.722e-009
   O2                    3.361e-009  3.937e-009    -8.474    -8.405     0.069

------------------------------Saturation indices-------------------------------

	Phase               SI log IAP  log KT

	Fe(OH)3(a)       -5.90   -1.01    4.89  Fe(OH)3
	Goethite          0.00   -1.00   -1.00  FeOOH
	H2(g)           -38.85  -42.00   -3.15  H2
	H2O(g)           -1.52   -0.01    1.51  H2O
	Hematite          2.02   -1.99   -4.01  Fe2O3
	O2(g)            -5.51   -8.40   -2.89  O2

------------------
End of simulation.
------------------

------------------------------------
Reading input data for simulation 9.
------------------------------------

	solution 1
	equilibrium_phases 1-2
		goethite	0.0	0.01
	save solution 1-2
	end
-------------------------------------------
Beginning of initial solution calculations.
-------------------------------------------

Initial solution 1.	

-----------------------------Solution composition------------------------------

	Elements           Molality       Moles

	Pure water     

----------------------------Description of solution----------------------------

                                       pH  =   7.000    
                                       pe  =   4.000    
       Specific Conductance (uS/cm, 25 oC) = 0
                          Density (g/cm3)  =   0.99705
                        Activity of water  =   1.000
                           Ionic strength  =  1.001e-007
                       Mass of water (kg)  =  1.000e+000
                 Total alkalinity (eq/kg)  =  1.082e-010
                    Total carbon (mol/kg)  =  0.000e+000
                       Total CO2 (mol/kg)  =  0.000e+000
                      Temperature (deg C)  =  25.000
                  Electrical balance (eq)  = -1.082e-010
 Percent error, 100*(Cat-|An|)/(Cat+|An|)  =  -0.05
                               Iterations  =   0
                                  Total H  = 1.110124e+002
                                  Total O  = 5.550622e+001

----------------------------Distribution of species----------------------------

                                                   Log       Log         Log 
   Species                 Molality    Activity  Molality  Activity     Gamma

   OH-                   1.002e-007  1.001e-007    -6.999    -6.999    -0.000
   H+                    1.001e-007  1.000e-007    -7.000    -7.000    -0.000
   H2O                   5.551e+001  1.000e+000     1.744     0.000     0.000
H(0)            1.416e-025
   H2                    7.079e-026  7.079e-026   -25.150   -25.150     0.000
O(0)            0.000e+000
   O2                    0.000e+000  0.000e+000   -42.080   -42.080     0.000

------------------------------Saturation indices-------------------------------

	Phase               SI log IAP  log KT

	H2(g)           -22.00  -25.15   -3.15  H2
	H2O(g)           -1.51    0.00    1.51  H2O
	O2(g)           -39.19  -42.08   -2.89  O2

-----------------------------------------
Beginning of batch-reaction calculations.
-----------------------------------------

Reaction step 1.

Using solution 1.	
Using pure phase assemblage 1.	

-------------------------------Phase assemblage--------------------------------

                                                      Moles in assemblage
Phase                  SI log IAP  log KT      Initial       Final       Delta

Goethite            -0.00   -1.00   -1.00   1.000e-002  1.000e-002 -5.487e-014

-----------------------------Solution composition------------------------------

	Elements           Molality       Moles

	Fe               5.488e-014  5.488e-014

----------------------------Description of solution----------------------------

                                       pH  =   7.000      Charge balance
                                       pe  =   5.267      Adjusted to redox equilibrium
       Specific Conductance (uS/cm, 25 oC) = 0
                          Density (g/cm3)  =   0.99705
                        Activity of water  =   1.000
                           Ionic strength  =  1.001e-007
                       Mass of water (kg)  =  1.000e+000
                 Total alkalinity (eq/kg)  =  1.083e-010
                    Total carbon (mol/kg)  =  0.000e+000
                       Total CO2 (mol/kg)  =  0.000e+000
                      Temperature (deg C)  =  25.000
                  Electrical balance (eq)  = -1.082e-010
 Percent error, 100*(Cat-|An|)/(Cat+|An|)  =  -0.05
                               Iterations  =  14
                                  Total H  = 1.110124e+002
                                  Total O  = 5.550622e+001

----------------------------Distribution of species----------------------------

                                                   Log       Log         Log 
   Species                 Molality    Activity  Molality  Activity     Gamma

   OH-                   1.001e-007  1.001e-007    -6.999    -7.000    -0.000
   H+                    1.000e-007  1.000e-007    -7.000    -7.000    -0.000
   H2O                   5.551e+001  1.000e+000     1.744    -0.000     0.000
Fe(2)           5.690e-015
   Fe+2                  5.672e-015  5.663e-015   -14.246   -14.247    -0.001
   FeOH+                 1.792e-017  1.791e-017   -16.747   -16.747    -0.000
Fe(3)           4.919e-014
   Fe(OH)3               2.754e-014  2.754e-014   -13.560   -13.560     0.000
   Fe(OH)2+              2.139e-014  2.138e-014   -13.670   -13.670    -0.000
   Fe(OH)4-              2.513e-016  2.512e-016   -15.600   -15.600    -0.000
   FeOH+2                6.466e-018  6.457e-018   -17.189   -17.190    -0.001
   Fe+3                  1.003e-022  1.000e-022   -21.999   -22.000    -0.001
   Fe2(OH)2+4            1.129e-033  1.122e-033   -32.947   -32.950    -0.003
   Fe3(OH)4+5            0.000e+000  0.000e+000   -44.296   -44.300    -0.004
H(0)            4.142e-028
   H2                    2.071e-028  2.071e-028   -27.684   -27.684     0.000
O(0)            1.944e-037
   O2                    9.721e-038  9.721e-038   -37.012   -37.012     0.000

------------------------------Saturation indices-------------------------------

	Phase               SI log IAP  log KT

	Fe(OH)3(a)       -5.89   -1.00    4.89  Fe(OH)3
	Goethite         -0.00   -1.00   -1.00  FeOOH
	H2(g)           -24.53  -27.68   -3.15  H2
	H2O(g)           -1.51   -0.00    1.51  H2O
	Hematite          2.01   -2.00   -4.01  Fe2O3
	O2(g)           -34.12  -37.01   -2.89  O2

------------------
End of simulation.
------------------

-------------------------------------
Reading input data for simulation 10.
-------------------------------------

	reaction 1
		HCl	1.0
		0.25	moles
	surface 1-2
		no_edl
		Hfo_s	goethite	0.01	50000
		Hfo_w	goethite	0.1	50000
		equilibrate	solution 1
	use solution 1
	use equilibrium_phases 1
	use reaction 1
	use surface 1
	save solution 2
	save equilibrium_phases 2
	save surface 2
	end
------------------------------------------------------
Beginning of initial surface-composition calculations.
------------------------------------------------------

Surface 1.	

Hfo           
	 7.199e-004  Surface charge, eq
Hfo_s         
	 1.000e-004  moles
	                                   Mole                     Log
	Species               Moles    Fraction    Molality    Molality

	Hfo_sOH2+        6.584e-005       0.658  6.584e-005      -4.182
	Hfo_sOH          3.377e-005       0.338  3.377e-005      -4.472
	Hfo_sO-          3.967e-007       0.004  3.967e-007      -6.402
	Hfo_sOFe+        2.146e-013       0.000  2.146e-013     -12.668

Hfo           
	 7.199e-004  Surface charge, eq
Hfo_w         
	 1.000e-003  moles
	                                   Mole                     Log
	Species               Moles    Fraction    Molality    Molality

	Hfo_wOH2+        6.584e-004       0.658  6.584e-004      -3.182
	Hfo_wOH          3.377e-004       0.338  3.377e-004      -3.472
	Hfo_wO-          3.967e-006       0.004  3.967e-006      -5.402
	Hfo_wOFe+        2.002e-014       0.000  2.002e-014     -13.698
	Hfo_wOFeOH       5.389e-016       0.000  5.389e-016     -15.268

-----------------------------------------
Beginning of batch-reaction calculations.
-----------------------------------------

Reaction step 1.

Using solution 1.	Solution after simulation 9.
Using surface 1.	Surface assemblage after simulation 10.
Using pure phase assemblage 1.	
Using reaction 1.	

Reaction 1.	Irreversible reaction defined in simulation 10.

	 2.500e-001 moles of the following reaction have been added:

	                 Relative
	Reactant            moles

	HCl                  1.00000

	                 Relative
	Element             moles
	Cl                   1.00000
	H                    1.00000

-------------------------------Phase assemblage--------------------------------

                                                      Moles in assemblage
Phase                  SI log IAP  log KT      Initial       Final       Delta

Goethite            -0.22   -1.22   -1.00   1.000e-002           0 -1.000e-002

------------------------------Surface composition------------------------------

Hfo           
	 1.931e-024  Surface charge, eq
Hfo_s         
	 0.000e+000  moles
	                                   Mole                     Log
	Species               Moles    Fraction    Molality    Molality

	Hfo_sOH2+        9.654e-025       0.000  9.650e-025     -24.015
	Hfo_sOH          2.845e-031       0.000  2.844e-031     -30.546
	Hfo_sO-          1.921e-039       0.000  1.921e-039     -38.717
	Hfo_sOFe+        1.834e-040       0.000  1.834e-040     -39.737

Hfo           
	 1.931e-024  Surface charge, eq
Hfo_w         
	 0.000e+000  moles
	                                   Mole                     Log
	Species               Moles    Fraction    Molality    Molality

	Hfo_wOH2+        9.654e-025       0.000  9.650e-025     -24.015
	Hfo_wOH          2.845e-031       0.000  2.844e-031     -30.546
	Hfo_wO-          1.921e-039       0.000  1.921e-039     -38.717
	Hfo_wOFe+        1.712e-042       0.000  1.711e-042     -41.767
	Hfo_wOFeOH       2.627e-050       0.000  2.626e-050     -49.581

-----------------------------Solution composition------------------------------

	Elements           Molality       Moles

	Cl               2.499e-001  2.500e-001
	Fe               9.996e-003  1.000e-002

----------------------------Description of solution----------------------------

                                       pH  =   0.759      Charge balance
                                       pe  =  18.531      Adjusted to redox equilibrium
       Specific Conductance (uS/cm, 25 oC) = 81661
                          Density (g/cm3)  =   1.00187
                        Activity of water  =   0.992
                           Ionic strength  =  2.552e-001
                       Mass of water (kg)  =  1.000e+000
                 Total alkalinity (eq/kg)  = -2.406e-001
                    Total carbon (mol/kg)  =  0.000e+000
                       Total CO2 (mol/kg)  =  0.000e+000
                      Temperature (deg C)  =  25.000
                  Electrical balance (eq)  =  7.199e-004
 Percent error, 100*(Cat-|An|)/(Cat+|An|)  =   0.15
                               Iterations  =  20
                                  Total H  = 1.112732e+002
                                  Total O  = 5.552622e+001

----------------------------Distribution of species----------------------------

                                                   Log       Log         Log 
   Species                 Molality    Activity  Molality  Activity     Gamma

   H+                    2.207e-001  1.740e-001    -0.656    -0.759    -0.103
   OH-                   8.303e-014  5.707e-014   -13.081   -13.244    -0.163
   H2O                   5.551e+001  9.920e-001     1.744    -0.003     0.000
Cl              2.499e-001
   Cl-                   2.410e-001  1.671e-001    -0.618    -0.777    -0.159
   FeCl+2                5.523e-003  1.638e-003    -2.258    -2.786    -0.528
   FeCl2+                1.657e-003  1.223e-003    -2.781    -2.913    -0.132
   FeCl3                 1.928e-005  2.044e-005    -4.715    -4.689     0.026
   FeCl+                 3.125e-010  2.306e-010    -9.505    -9.637    -0.132
Fe(2)           3.591e-009
   Fe+2                  3.279e-009  9.997e-010    -8.484    -9.000    -0.516
   FeCl+                 3.125e-010  2.306e-010    -9.505    -9.637    -0.132
   FeOH+                 2.442e-018  1.802e-018   -17.612   -17.744    -0.132
Fe(3)           9.996e-003
   FeCl+2                5.523e-003  1.638e-003    -2.258    -2.786    -0.528
   Fe+3                  2.756e-003  3.246e-004    -2.560    -3.489    -0.929
   FeCl2+                1.657e-003  1.223e-003    -2.781    -2.913    -0.132
   FeOH+2                4.027e-005  1.195e-005    -4.395    -4.923    -0.528
   FeCl3                 1.928e-005  2.044e-005    -4.715    -4.689     0.026
   Fe2(OH)2+4            4.961e-007  3.842e-009    -6.304    -8.415    -2.111
   Fe(OH)2+              3.056e-008  2.255e-008    -7.515    -7.647    -0.132
   Fe3(OH)4+5            3.600e-011  1.810e-014   -10.444   -13.742    -3.299
   Fe(OH)3               1.562e-014  1.656e-014   -13.806   -13.781     0.026
   Fe(OH)4-              1.167e-022  8.612e-023   -21.933   -22.065    -0.132
H(0)            0.000e+000
   H2                    0.000e+000  0.000e+000   -41.757   -41.732     0.026
O(0)            2.250e-009
   O2                    1.125e-009  1.193e-009    -8.949    -8.923     0.026

------------------------------Saturation indices-------------------------------

	Phase               SI log IAP  log KT

	Fe(OH)3(a)       -6.11   -1.22    4.89  Fe(OH)3
	Goethite         -0.22   -1.22   -1.00  FeOOH
	H2(g)           -38.58  -41.73   -3.15  H2
	H2O(g)           -1.51   -0.00    1.51  H2O
	Hematite          1.58   -2.43   -4.01  Fe2O3
	O2(g)            -6.03   -8.92   -2.89  O2

------------------
End of simulation.
------------------

-------------------------------------
Reading input data for simulation 11.
-------------------------------------

	use solution 2
	use equilibrium_phases 2
	use surface 2
	end
-----------------------------------------
Beginning of batch-reaction calculations.
-----------------------------------------

Reaction step 1.

Using solution 2.	Solution after simulation 10.
Using surface 2.	Surface assemblage after simulation 10.
Using pure phase assemblage 2.	Pure-phase assemblage after simulation 10.

-------------------------------Phase assemblage--------------------------------

                                                      Moles in assemblage
Phase                  SI log IAP  log KT      Initial       Final       Delta

Goethite            -0.22   -1.22   -1.00   0.000e+000           0  0.000e+000

------------------------------Surface composition------------------------------

Hfo           
	 1.840e-024  Surface charge, eq
Hfo_s         
	 0.000e+000  moles
	                                   Mole                     Log
	Species               Moles    Fraction    Molality    Molality

	Hfo_sOH2+        9.199e-025       0.000  9.196e-025     -24.036
	Hfo_sOH          2.711e-031       0.000  2.710e-031     -30.567
	Hfo_sO-          1.831e-039       0.000  1.830e-039     -38.738
	Hfo_sOFe+        1.718e-040       0.000  1.717e-040     -39.765

Hfo           
	 1.840e-024  Surface charge, eq
Hfo_w         
	 0.000e+000  moles
	                                   Mole                     Log
	Species               Moles    Fraction    Molality    Molality

	Hfo_wOH2+        9.199e-025       0.000  9.196e-025     -24.036
	Hfo_wOH          2.711e-031       0.000  2.710e-031     -30.567
	Hfo_wO-          1.831e-039       0.000  1.830e-039     -38.738
	Hfo_wOFe+        1.603e-042       0.000  1.602e-042     -41.795
	Hfo_wOFeOH       2.460e-050       0.000  2.459e-050     -49.609

-----------------------------Solution composition------------------------------

	Elements           Molality       Moles

	Cl               2.499e-001  2.500e-001
	Fe               9.996e-003  1.000e-002

----------------------------Description of solution----------------------------

                                       pH  =   0.759      Charge balance
                                       pe  =  18.539      Adjusted to redox equilibrium
       Specific Conductance (uS/cm, 25 oC) = 81661
                          Density (g/cm3)  =   1.00187
                        Activity of water  =   0.992
                           Ionic strength  =  2.552e-001
                       Mass of water (kg)  =  1.000e+000
                 Total alkalinity (eq/kg)  = -2.406e-001
                    Total carbon (mol/kg)  =  0.000e+000
                       Total CO2 (mol/kg)  =  0.000e+000
                      Temperature (deg C)  =  25.000
                  Electrical balance (eq)  =  7.199e-004
 Percent error, 100*(Cat-|An|)/(Cat+|An|)  =   0.15
                               Iterations  =   6
                                  Total H  = 1.112732e+002
                                  Total O  = 5.552622e+001

----------------------------Distribution of species----------------------------

                                                   Log       Log         Log 
   Species                 Molality    Activity  Molality  Activity     Gamma

   H+                    2.207e-001  1.740e-001    -0.656    -0.759    -0.103
   OH-                   8.303e-014  5.707e-014   -13.081   -13.244    -0.163
   H2O                   5.551e+001  9.920e-001     1.744    -0.003     0.000
Cl              2.499e-001
   Cl-                   2.410e-001  1.671e-001    -0.618    -0.777    -0.159
   FeCl+2                5.523e-003  1.638e-003    -2.258    -2.786    -0.528
   FeCl2+                1.657e-003  1.223e-003    -2.781    -2.913    -0.132
   FeCl3                 1.928e-005  2.044e-005    -4.715    -4.689     0.026
   FeCl+                 3.071e-010  2.266e-010    -9.513    -9.645    -0.132
Fe(2)           3.529e-009
   Fe+2                  3.222e-009  9.823e-010    -8.492    -9.008    -0.516
   FeCl+                 3.071e-010  2.266e-010    -9.513    -9.645    -0.132
   FeOH+                 2.400e-018  1.771e-018   -17.620   -17.752    -0.132
Fe(3)           9.996e-003
   FeCl+2                5.523e-003  1.638e-003    -2.258    -2.786    -0.528
   Fe+3                  2.756e-003  3.246e-004    -2.560    -3.489    -0.929
   FeCl2+                1.657e-003  1.223e-003    -2.781    -2.913    -0.132
   FeOH+2                4.027e-005  1.195e-005    -4.395    -4.923    -0.528
   FeCl3                 1.928e-005  2.044e-005    -4.715    -4.689     0.026
   Fe2(OH)2+4            4.961e-007  3.842e-009    -6.304    -8.415    -2.111
   Fe(OH)2+              3.056e-008  2.255e-008    -7.515    -7.647    -0.132
   Fe3(OH)4+5            3.600e-011  1.810e-014   -10.444   -13.742    -3.299
   Fe(OH)3               1.562e-014  1.656e-014   -13.806   -13.781     0.026
   Fe(OH)4-              1.167e-022  8.612e-023   -21.933   -22.065    -0.132
H(0)            0.000e+000
   H2                    0.000e+000  0.000e+000   -41.772   -41.747     0.026
O(0)            2.412e-009
   O2                    1.206e-009  1.279e-009    -8.919    -8.893     0.026

------------------------------Saturation indices-------------------------------

	Phase               SI log IAP  log KT

	Fe(OH)3(a)       -6.11   -1.22    4.89  Fe(OH)3
	Goethite         -0.22   -1.22   -1.00  FeOOH
	H2(g)           -38.60  -41.75   -3.15  H2
	H2O(g)           -1.51   -0.00    1.51  H2O
	Hematite          1.58   -2.43   -4.01  Fe2O3
	O2(g)            -6.00   -8.89   -2.89  O2

------------------
End of simulation.
------------------

-------------------------------------
Reading input data for simulation 12.
-------------------------------------

	solution 1
	equilibrium_phases 1
		goethite	0.0	0.0
	reaction 1
		FeCl3	1.0
		0.25	moles
	surface 1
		no_edl
		Hfo_s	goethite	0.01	50000
		Hfo_w	goethite	0.1	50000
		equilibrate	solution 1
	end
-------------------------------------------
Beginning of initial solution calculations.
-------------------------------------------

Initial solution 1.	

-----------------------------Solution composition------------------------------

	Elements           Molality       Moles

	Pure water     

----------------------------Description of solution----------------------------

                                       pH  =   7.000    
                                       pe  =   4.000    
       Specific Conductance (uS/cm, 25 oC) = 0
                          Density (g/cm3)  =   0.99705
                        Activity of water  =   1.000
                           Ionic strength  =  1.001e-007
                       Mass of water (kg)  =  1.000e+000
                 Total alkalinity (eq/kg)  =  1.082e-010
                    Total carbon (mol/kg)  =  0.000e+000
                       Total CO2 (mol/kg)  =  0.000e+000
                      Temperature (deg C)  =  25.000
                  Electrical balance (eq)  = -1.082e-010
 Percent error, 100*(Cat-|An|)/(Cat+|An|)  =  -0.05
                               Iterations  =   0
                                  Total H  = 1.110124e+002
                                  Total O  = 5.550622e+001

----------------------------Distribution of species----------------------------

                                                   Log       Log         Log 
   Species                 Molality    Activity  Molality  Activity     Gamma

   OH-                   1.002e-007  1.001e-007    -6.999    -6.999    -0.000
   H+                    1.001e-007  1.000e-007    -7.000    -7.000    -0.000
   H2O                   5.551e+001  1.000e+000     1.744     0.000     0.000
H(0)            1.416e-025
   H2                    7.079e-026  7.079e-026   -25.150   -25.150     0.000
O(0)            0.000e+000
   O2                    0.000e+000  0.000e+000   -42.080   -42.080     0.000

------------------------------Saturation indices-------------------------------

	Phase               SI log IAP  log KT

	H2(g)           -22.00  -25.15   -3.15  H2
	H2O(g)           -1.51    0.00    1.51  H2O
	O2(g)           -39.19  -42.08   -2.89  O2

------------------------------------------------------
Beginning of initial surface-composition calculations.
------------------------------------------------------

Surface 1.	

Hfo           
	 3.876e-030  Surface charge, eq
Hfo_s         
	 0.000e+000  moles
	                                   Mole                     Log
	Species               Moles    Fraction    Molality    Molality

	Hfo_sOH2+        1.950e-030       0.000  1.950e-030     -29.710
	Hfo_sOH          1.000e-030       0.000  1.000e-030     -30.000
	Hfo_sO-          1.175e-032       0.000  1.175e-032     -31.930

Hfo           
	 3.876e-030  Surface charge, eq
Hfo_w         
	 0.000e+000  moles
	                                   Mole                     Log
	Species               Moles    Fraction    Molality    Molality

	Hfo_wOH2+        1.950e-030       0.000  1.950e-030     -29.710
	Hfo_wOH          1.000e-030       0.000  1.000e-030     -30.000
	Hfo_wO-          1.175e-032       0.000  1.175e-032     -31.930

-----------------------------------------
Beginning of batch-reaction calculations.
-----------------------------------------

Reaction step 1.

Using solution 1.	
Using surface 1.	Surface assemblage after simulation 12.
Using pure phase assemblage 1.	
Using reaction 1.	

Reaction 1.	Irreversible reaction defined in simulation 12.

	 2.500e-001 moles of the following reaction have been added:

	                 Relative
	Reactant            moles

	FeCl3                1.00000

	                 Relative
	Element             moles
	Cl                   3.00000
	Fe                   1.00000

-------------------------------Phase assemblage--------------------------------

                                                      Moles in assemblage
Phase                  SI log IAP  log KT      Initial       Final       Delta

Goethite             0.00   -1.00   -1.00   0.000e+000  1.186e-001  1.186e-001

------------------------------Surface composition------------------------------

Hfo           
	 1.305e-002  Surface charge, eq
Hfo_s         
	 1.186e-003  moles
	                                   Mole                     Log
	Species               Moles    Fraction    Molality    Molality

	Hfo_sOH2+        1.186e-003       1.000  1.191e-003      -2.924
	Hfo_sOH          2.346e-010       0.000  2.356e-010      -9.628
	Hfo_sO-          1.063e-018       0.000  1.068e-018     -17.971
	Hfo_sOFe+        2.768e-019       0.000  2.780e-019     -18.556

Hfo           
	 1.305e-002  Surface charge, eq
Hfo_w         
	 1.186e-002  moles
	                                   Mole                     Log
	Species               Moles    Fraction    Molality    Molality

	Hfo_wOH2+        1.186e-002       1.000  1.191e-002      -1.924
	Hfo_wOH          2.346e-009       0.000  2.356e-009      -8.628
	Hfo_wO-          1.063e-017       0.000  1.068e-017     -16.971
	Hfo_wOFe+        2.584e-020       0.000  2.595e-020     -19.586
	Hfo_wOFeOH       2.633e-028       0.000  2.645e-028     -27.578

-----------------------------Solution composition------------------------------

	Elements           Molality       Moles

	Cl               7.532e-001  7.500e-001
	Fe               1.320e-001  1.314e-001

----------------------------Description of solution----------------------------

                                       pH  =   0.586      Charge balance
                                       pe  =  18.842      Adjusted to redox equilibrium
       Specific Conductance (uS/cm, 25 oC) = 124879
                          Density (g/cm3)  =   1.01558
                        Activity of water  =   0.982
                           Ionic strength  =  7.247e-001
                       Mass of water (kg)  =  9.957e-001
                 Total alkalinity (eq/kg)  = -6.082e-001
                    Total carbon (mol/kg)  =  0.000e+000
                       Total CO2 (mol/kg)  =  0.000e+000
                      Temperature (deg C)  =  25.000
                  Electrical balance (eq)  = -1.305e-002
 Percent error, 100*(Cat-|An|)/(Cat+|An|)  =  -1.11
                               Iterations  =  26
                                  Total H  = 1.108808e+002
                                  Total O  = 5.526900e+001

----------------------------Distribution of species----------------------------

                                                   Log       Log         Log 
   Species                 Molality    Activity  Molality  Activity     Gamma

   H+                    3.444e-001  2.593e-001    -0.463    -0.586    -0.123
   OH-                   6.279e-014  3.791e-014   -13.202   -13.421    -0.219
   H2O                   5.551e+001  9.817e-001     1.744    -0.008     0.000
Cl              7.532e-001
   Cl-                   5.982e-001  3.703e-001    -0.223    -0.431    -0.208
   FeCl+2                6.304e-002  2.022e-002    -1.200    -1.694    -0.494
   FeCl2+                4.443e-002  3.344e-002    -1.352    -1.476    -0.123
   FeCl3                 1.048e-003  1.238e-003    -2.980    -2.907     0.072
   FeCl+                 1.852e-009  1.393e-009    -8.732    -8.856    -0.123
Fe(2)           1.397e-008
   Fe+2                  1.212e-008  2.726e-009    -7.917    -8.564    -0.648
   FeCl+                 1.852e-009  1.393e-009    -8.732    -8.856    -0.123
   FeOH+                 4.338e-018  3.265e-018   -17.363   -17.486    -0.123
Fe(3)           1.320e-001
   FeCl+2                6.304e-002  2.022e-002    -1.200    -1.694    -0.494
   FeCl2+                4.443e-002  3.344e-002    -1.352    -1.476    -0.123
   Fe+3                  2.329e-002  1.808e-003    -1.633    -2.743    -1.110
   FeCl3                 1.048e-003  1.238e-003    -2.980    -2.907     0.072
   FeOH+2                1.378e-004  4.420e-005    -3.861    -4.355    -0.494
   Fe2(OH)2+4            4.971e-006  5.259e-008    -5.304    -7.279    -1.975
   Fe(OH)2+              7.365e-008  5.543e-008    -7.133    -7.256    -0.123
   Fe3(OH)4+5            7.436e-010  6.090e-013    -9.129   -12.215    -3.087
   Fe(OH)3               2.288e-014  2.704e-014   -13.640   -13.568     0.072
   Fe(OH)4-              1.241e-022  9.338e-023   -21.906   -22.030    -0.123
H(0)            0.000e+000
   H2                    0.000e+000  0.000e+000   -42.078   -42.006     0.072
O(0)            6.985e-009
   O2                    3.492e-009  4.127e-009    -8.457    -8.384     0.072

------------------------------Saturation indices-------------------------------

	Phase               SI log IAP  log KT

	Fe(OH)3(a)       -5.90   -1.01    4.89  Fe(OH)3
	Goethite          0.00   -1.00   -1.00  FeOOH
	H2(g)           -38.86  -42.01   -3.15  H2
	H2O(g)           -1.52   -0.01    1.51  H2O
	Hematite          2.02   -1.99   -4.01  Fe2O3
	O2(g)            -5.49   -8.38   -2.89  O2

------------------
End of simulation.
------------------

-------------------------------------
Reading input data for simulation 13.
-------------------------------------

-----------
End of run.
-----------

