   Input file: sys_ex
  Output file: sys_ex.out
Database file: ../database/phreeqc.dat

------------------
Reading data base.
------------------

	SOLUTION_MASTER_SPECIES
	SOLUTION_SPECIES
	PHASES
	EXCHANGE_MASTER_SPECIES
	EXCHANGE_SPECIES
	SURFACE_MASTER_SPECIES
	SURFACE_SPECIES
	RATES
	END
------------------------------------
Reading input data for simulation 1.
------------------------------------

	database ../database/phreeqc.dat
	EXCHANGE_MASTER_SPECIES
	Y Y-2
	EXCHANGE_SPECIES
	Y-2 = Y-2
	log_k 0
	2Na+ + Y-2 = Na2Y
	 log_k 0.0
	Ca+2 + Y-2 = CaY
	log_k 0.8 # log_k relative to NaX.
	SOLUTION 1
	pH 7.6
	 pe 14 O2(g) -1.0
	 temp 25
	Na 240
	 K 1.61
	 Mg 16.9
	 Ca 25.8
	 Sr 0.505
	Cl 300
	 S(6) 14.1
	 Fe(2) 0.0
	 Alkalinity 0.476
	EXCHANGE 6
	 X 1
	 equilibrate 1
	 Y 1
	 equilibrate 1
	USER_PRINT
	 2 if step_no = 0 then goto 200
	 3 print ' on X...', sys("X"), mol("NaX")
	 5 print ' on Y...', sys("Y"), mol("Na2Y")
	 200 end
-------------------------------------------
Beginning of initial solution calculations.
-------------------------------------------

Initial solution 1.	

----------------------------------User print-----------------------------------


-----------------------------Solution composition------------------------------

	Elements           Molality       Moles

	Alkalinity       4.760e-004  4.760e-004
	Ca               2.580e-002  2.580e-002
	Cl               3.000e-001  3.000e-001
	K                1.610e-003  1.610e-003
	Mg               1.690e-002  1.690e-002
	Na               2.400e-001  2.400e-001
	S(6)             1.410e-002  1.410e-002
	Sr               5.050e-004  5.050e-004

----------------------------Description of solution----------------------------

                                       pH  =   7.600    
                                       pe  =  12.949      Equilibrium with O2(g)
       Specific Conductance (uS/cm, 25 oC) = 31119
                          Density (g/cm3)  =   1.01116
                        Activity of water  =   0.990
                           Ionic strength  =  3.649e-001
                       Mass of water (kg)  =  1.000e+000
                    Total carbon (mol/kg)  =  4.773e-004
                       Total CO2 (mol/kg)  =  4.773e-004
                      Temperature (deg C)  =  25.000
                  Electrical balance (eq)  = -6.560e-004
 Percent error, 100*(Cat-|An|)/(Cat+|An|)  =  -0.10
                               Iterations  =   6
                                  Total H  = 1.110129e+002
                                  Total O  = 5.556427e+001

----------------------------Distribution of species----------------------------

                                                   Log       Log         Log 
   Species                 Molality    Activity  Molality  Activity     Gamma

   OH-                   5.993e-007  3.945e-007    -6.222    -6.404    -0.182
   H+                    3.239e-008  2.512e-008    -7.490    -7.600    -0.110
   H2O                   5.551e+001  9.899e-001     1.744    -0.004     0.000
C(4)            4.773e-004
   HCO3-                 3.766e-004  2.675e-004    -3.424    -3.573    -0.149
   CaHCO3+               3.136e-005  2.227e-005    -4.504    -4.652    -0.149
   NaHCO3                2.360e-005  2.567e-005    -4.627    -4.591     0.036
   MgHCO3+               1.967e-005  1.438e-005    -4.706    -4.842    -0.136
   CO2                   1.403e-005  1.526e-005    -4.853    -4.816     0.036
   CaCO3                 5.034e-006  5.475e-006    -5.298    -5.262     0.036
   NaCO3-                2.171e-006  1.587e-006    -5.663    -5.799    -0.136
   MgCO3                 2.013e-006  2.190e-006    -5.696    -5.660     0.036
   CO3-2                 1.962e-006  4.995e-007    -5.707    -6.301    -0.594
   SrHCO3+               7.365e-007  5.231e-007    -6.133    -6.281    -0.149
   SrCO3                 3.747e-008  4.076e-008    -7.426    -7.390     0.036
Ca              2.580e-002
   Ca+2                  2.357e-002  6.525e-003    -1.628    -2.185    -0.558
   CaSO4                 2.197e-003  2.390e-003    -2.658    -2.622     0.036
   CaHCO3+               3.136e-005  2.227e-005    -4.504    -4.652    -0.149
   CaCO3                 5.034e-006  5.475e-006    -5.298    -5.262     0.036
   CaOH+                 5.837e-008  4.268e-008    -7.234    -7.370    -0.136
   CaHSO4+               4.811e-010  3.517e-010    -9.318    -9.454    -0.136
Cl              3.000e-001
   Cl-                   3.000e-001  2.000e-001    -0.523    -0.699    -0.176
H(0)            0.000e+000
   H2                    0.000e+000  0.000e+000   -44.285   -44.248     0.036
K               1.610e-003
   K+                    1.591e-003  1.061e-003    -2.798    -2.974    -0.176
   KSO4-                 1.872e-005  1.368e-005    -4.728    -4.864    -0.136
   KOH                   1.333e-010  1.449e-010    -9.875    -9.839     0.036
Mg              1.690e-002
   Mg+2                  1.506e-002  4.594e-003    -1.822    -2.338    -0.516
   MgSO4                 1.818e-003  1.977e-003    -2.740    -2.704     0.036
   MgHCO3+               1.967e-005  1.438e-005    -4.706    -4.842    -0.136
   MgCO3                 2.013e-006  2.190e-006    -5.696    -5.660     0.036
   MgOH+                 8.992e-007  6.573e-007    -6.046    -6.182    -0.136
Na              2.400e-001
   Na+                   2.378e-001  1.706e-001    -0.624    -0.768    -0.144
   NaSO4-                2.147e-003  1.570e-003    -2.668    -2.804    -0.136
   NaHCO3                2.360e-005  2.567e-005    -4.627    -4.591     0.036
   NaCO3-                2.171e-006  1.587e-006    -5.663    -5.799    -0.136
   NaOH                  4.085e-008  4.443e-008    -7.389    -7.352     0.036
O(0)            2.356e-004
   O2                    1.178e-004  1.281e-004    -3.929    -3.892     0.036
S(6)            1.410e-002
   SO4-2                 7.877e-003  1.836e-003    -2.104    -2.736    -0.633
   CaSO4                 2.197e-003  2.390e-003    -2.658    -2.622     0.036
   NaSO4-                2.147e-003  1.570e-003    -2.668    -2.804    -0.136
   MgSO4                 1.818e-003  1.977e-003    -2.740    -2.704     0.036
   SrSO4                 4.207e-005  4.576e-005    -4.376    -4.340     0.036
   KSO4-                 1.872e-005  1.368e-005    -4.728    -4.864    -0.136
   HSO4-                 6.133e-009  4.483e-009    -8.212    -8.348    -0.136
   CaHSO4+               4.811e-010  3.517e-010    -9.318    -9.454    -0.136
Sr              5.050e-004
   Sr+2                  4.622e-004  1.278e-004    -3.335    -3.893    -0.558
   SrSO4                 4.207e-005  4.576e-005    -4.376    -4.340     0.036
   SrHCO3+               7.365e-007  5.231e-007    -6.133    -6.281    -0.149
   SrCO3                 3.747e-008  4.076e-008    -7.426    -7.390     0.036
   SrOH+                 3.687e-010  2.584e-010    -9.433    -9.588    -0.154

------------------------------Saturation indices-------------------------------

	Phase               SI log IAP  log KT

	Anhydrite        -0.56   -4.92   -4.36  CaSO4
	Aragonite        -0.15   -8.49   -8.34  CaCO3
	Calcite          -0.01   -8.49   -8.48  CaCO3
	Celestite         0.00   -6.63   -6.63  SrSO4
	CO2(g)           -3.35   -4.82   -1.47  CO2
	Dolomite         -0.04  -17.13  -17.09  CaMg(CO3)2
	Gypsum           -0.35   -4.93   -4.58  CaSO4:2H2O
	H2(g)           -41.10  -44.25   -3.15  H2
	H2O(g)           -1.51   -0.00    1.51  H2O
	Halite           -3.05   -1.47    1.58  NaCl
	O2(g)            -1.00   -3.89   -2.89  O2
	Strontianite     -0.92  -10.19   -9.27  SrCO3

-------------------------------------------------------
Beginning of initial exchange-composition calculations.
-------------------------------------------------------

Exchange 6.	

X               1.000e+000 mol

	                               Equiv-    Equivalent      Log 
	Species             Moles      alents      Fraction     Gamma

	NaX              3.965e-001  3.965e-001  3.965e-001    -0.144
	CaX2             2.066e-001  4.132e-001  4.132e-001    -0.558
	MgX2             8.330e-002  1.666e-001  1.666e-001    -0.516
	KX               1.329e-002  1.329e-002  1.329e-002    -0.176
	SrX2             5.220e-003  1.044e-002  1.044e-002    -0.558
Y               1.000e+000 mol

	                               Equiv-    Equivalent      Log 
	Species             Moles      alents      Fraction     Gamma

	CaY              5.858e-001  1.172e+000  5.858e-001     0.000
	Na2Y             4.142e-001  8.285e-001  4.142e-001     0.000

-----------------------------------------
Beginning of batch-reaction calculations.
-----------------------------------------

Reaction step 1.

Using solution 1.	
Using exchange 6.	Exchange assemblage after simulation 1.

----------------------------------User print-----------------------------------

 on X...  1.0000e+000  3.9646e-001 
 on Y...  1.0000e+000  4.1425e-001 

-----------------------------Exchange composition------------------------------

X               1.000e+000 mol

	                               Equiv-    Equivalent      Log 
	Species             Moles      alents      Fraction     Gamma

	NaX              3.965e-001  3.965e-001  3.965e-001    -0.144
	CaX2             2.066e-001  4.132e-001  4.132e-001    -0.558
	MgX2             8.330e-002  1.666e-001  1.666e-001    -0.516
	KX               1.329e-002  1.329e-002  1.329e-002    -0.176
	SrX2             5.220e-003  1.044e-002  1.044e-002    -0.558
Y               1.000e+000 mol

	                               Equiv-    Equivalent      Log 
	Species             Moles      alents      Fraction     Gamma

	CaY              5.858e-001  1.172e+000  5.858e-001    -0.000
	Na2Y             4.142e-001  8.285e-001  4.142e-001    -0.000

-----------------------------Solution composition------------------------------

	Elements           Molality       Moles

	C                4.773e-004  4.773e-004
	Ca               2.580e-002  2.580e-002
	Cl               3.000e-001  3.000e-001
	K                1.610e-003  1.610e-003
	Mg               1.690e-002  1.690e-002
	Na               2.400e-001  2.400e-001
	S                1.410e-002  1.410e-002
	Sr               5.050e-004  5.050e-004

----------------------------Description of solution----------------------------

                                       pH  =   7.600      Charge balance
                                       pe  =  12.949      Adjusted to redox equilibrium
       Specific Conductance (uS/cm, 25 oC) = 31119
                          Density (g/cm3)  =   1.01116
                        Activity of water  =   0.990
                           Ionic strength  =  3.649e-001
                       Mass of water (kg)  =  1.000e+000
                 Total alkalinity (eq/kg)  =  4.760e-004
                       Total CO2 (mol/kg)  =  4.773e-004
                      Temperature (deg C)  =  25.000
                  Electrical balance (eq)  = -6.560e-004
 Percent error, 100*(Cat-|An|)/(Cat+|An|)  =  -0.10
                               Iterations  =   7
                                  Total H  = 1.110129e+002
                                  Total O  = 5.556427e+001

----------------------------Distribution of species----------------------------

                                                   Log       Log         Log 
   Species                 Molality    Activity  Molality  Activity     Gamma

   OH-                   5.993e-007  3.945e-007    -6.222    -6.404    -0.182
   H+                    3.239e-008  2.512e-008    -7.490    -7.600    -0.110
   H2O                   5.551e+001  9.899e-001     1.744    -0.004     0.000
C(-4)           0.000e+000
   CH4                   0.000e+000  0.000e+000  -144.847  -144.810     0.036
C(4)            4.773e-004
   HCO3-                 3.766e-004  2.675e-004    -3.424    -3.573    -0.149
   CaHCO3+               3.136e-005  2.227e-005    -4.504    -4.652    -0.149
   NaHCO3                2.360e-005  2.567e-005    -4.627    -4.591     0.036
   MgHCO3+               1.967e-005  1.438e-005    -4.706    -4.842    -0.136
   CO2                   1.403e-005  1.526e-005    -4.853    -4.816     0.036
   CaCO3                 5.034e-006  5.475e-006    -5.298    -5.262     0.036
   NaCO3-                2.171e-006  1.587e-006    -5.663    -5.799    -0.136
   MgCO3                 2.013e-006  2.190e-006    -5.696    -5.660     0.036
   CO3-2                 1.962e-006  4.995e-007    -5.707    -6.301    -0.594
   SrHCO3+               7.365e-007  5.231e-007    -6.133    -6.281    -0.149
   SrCO3                 3.747e-008  4.076e-008    -7.426    -7.390     0.036
Ca              2.580e-002
   Ca+2                  2.357e-002  6.525e-003    -1.628    -2.185    -0.558
   CaSO4                 2.197e-003  2.390e-003    -2.658    -2.622     0.036
   CaHCO3+               3.136e-005  2.227e-005    -4.504    -4.652    -0.149
   CaCO3                 5.034e-006  5.475e-006    -5.298    -5.262     0.036
   CaOH+                 5.837e-008  4.268e-008    -7.234    -7.370    -0.136
   CaHSO4+               4.811e-010  3.517e-010    -9.318    -9.454    -0.136
Cl              3.000e-001
   Cl-                   3.000e-001  2.000e-001    -0.523    -0.699    -0.176
H(0)            0.000e+000
   H2                    0.000e+000  0.000e+000   -44.285   -44.248     0.036
K               1.610e-003
   K+                    1.591e-003  1.061e-003    -2.798    -2.974    -0.176
   KSO4-                 1.872e-005  1.368e-005    -4.728    -4.864    -0.136
   KOH                   1.333e-010  1.449e-010    -9.875    -9.839     0.036
Mg              1.690e-002
   Mg+2                  1.506e-002  4.594e-003    -1.822    -2.338    -0.516
   MgSO4                 1.818e-003  1.977e-003    -2.740    -2.704     0.036
   MgHCO3+               1.967e-005  1.438e-005    -4.706    -4.842    -0.136
   MgCO3                 2.013e-006  2.190e-006    -5.696    -5.660     0.036
   MgOH+                 8.992e-007  6.573e-007    -6.046    -6.182    -0.136
Na              2.400e-001
   Na+                   2.378e-001  1.706e-001    -0.624    -0.768    -0.144
   NaSO4-                2.147e-003  1.570e-003    -2.668    -2.804    -0.136
   NaHCO3                2.360e-005  2.567e-005    -4.627    -4.591     0.036
   NaCO3-                2.171e-006  1.587e-006    -5.663    -5.799    -0.136
   NaOH                  4.085e-008  4.443e-008    -7.389    -7.352     0.036
O(0)            2.356e-004
   O2                    1.178e-004  1.281e-004    -3.929    -3.892     0.036
S(-2)           0.000e+000
   HS-                   0.000e+000  0.000e+000  -140.880  -141.061    -0.182
   H2S                   0.000e+000  0.000e+000  -141.756  -141.720     0.036
   S-2                   0.000e+000  0.000e+000  -145.762  -146.379    -0.618
S(6)            1.410e-002
   SO4-2                 7.877e-003  1.836e-003    -2.104    -2.736    -0.633
   CaSO4                 2.197e-003  2.390e-003    -2.658    -2.622     0.036
   NaSO4-                2.147e-003  1.570e-003    -2.668    -2.804    -0.136
   MgSO4                 1.818e-003  1.977e-003    -2.740    -2.704     0.036
   SrSO4                 4.207e-005  4.576e-005    -4.376    -4.340     0.036
   KSO4-                 1.872e-005  1.368e-005    -4.728    -4.864    -0.136
   HSO4-                 6.133e-009  4.483e-009    -8.212    -8.348    -0.136
   CaHSO4+               4.811e-010  3.517e-010    -9.318    -9.454    -0.136
Sr              5.050e-004
   Sr+2                  4.622e-004  1.278e-004    -3.335    -3.893    -0.558
   SrSO4                 4.207e-005  4.576e-005    -4.376    -4.340     0.036
   SrHCO3+               7.365e-007  5.231e-007    -6.133    -6.281    -0.149
   SrCO3                 3.747e-008  4.076e-008    -7.426    -7.390     0.036
   SrOH+                 3.687e-010  2.584e-010    -9.433    -9.588    -0.154

------------------------------Saturation indices-------------------------------

	Phase               SI log IAP  log KT

	Anhydrite        -0.56   -4.92   -4.36  CaSO4
	Aragonite        -0.15   -8.49   -8.34  CaCO3
	Calcite          -0.01   -8.49   -8.48  CaCO3
	Celestite         0.00   -6.63   -6.63  SrSO4
	CH4(g)         -141.95 -144.81   -2.86  CH4
	CO2(g)           -3.35   -4.82   -1.47  CO2
	Dolomite         -0.04  -17.13  -17.09  CaMg(CO3)2
	Gypsum           -0.35   -4.93   -4.58  CaSO4:2H2O
	H2(g)           -41.10  -44.25   -3.15  H2
	H2O(g)           -1.51   -0.00    1.51  H2O
	H2S(g)         -140.72 -141.72   -1.00  H2S
	Halite           -3.05   -1.47    1.58  NaCl
	O2(g)            -1.00   -3.89   -2.89  O2
	Strontianite     -0.92  -10.19   -9.27  SrCO3
	Sulfur         -105.50 -100.62    4.88  S

------------------
End of simulation.
------------------

------------------------------------
Reading input data for simulation 2.
------------------------------------

-----------
End of run.
-----------

