   Input file: test_sit
  Output file: test_sit.out
Database file: ../database/sit.dat

------------------
Reading data base.
------------------

	SOLUTION_MASTER_SPECIES
	SIT
	SOLUTION_SPECIES
	PHASES
------------------------------------
Reading input data for simulation 1.
------------------------------------

	DATABASE ../database/sit.dat
	SOLUTION
		units mol/kgw
		pH	0   charge
		Cl	3
		K       .001
		N(5)    .001
-------------------------------------------
Beginning of initial solution calculations.
-------------------------------------------

Initial solution 1.	

-----------------------------Solution composition------------------------------

	Elements           Molality       Moles

	Cl               3.000e+000  3.000e+000
	K                1.000e-003  1.000e-003
	N(5)             1.000e-003  1.000e-003

----------------------------Description of solution----------------------------

                                       pH  =  -0.336      Charge balance
                                       pe  =   4.000    
                        Activity of water  =   0.899
                           Ionic strength  =  2.085e+000
                       Mass of water (kg)  =  1.000e+000
                 Total alkalinity (eq/kg)  = -3.000e+000
                    Total carbon (mol/kg)  =  0.000e+000
                       Total CO2 (mol/kg)  =  0.000e+000
                      Temperature (deg C)  =  25.000
                  Electrical balance (eq)  =  1.262e-013
 Percent error, 100*(Cat-|An|)/(Cat+|An|)  =   0.00
                               Iterations  =  11
                         Gamma iterations  =   4
                      Osmotic coefficient  =   1.16122
                                  Total H  = 1.140198e+002
                                  Total O  = 5.551291e+001

----------------------------Distribution of species----------------------------

                                                   Log       Log         Log 
   Species                 Molality    Activity  Molality  Activity     Gamma

   H+                    2.084e+000  2.168e+000     0.319     0.336     0.017
   OH-                   7.092e-015  4.148e-015   -14.149   -14.382    -0.233
   H2O                   5.551e+001  8.991e-001     1.744    -0.046     0.000
Cl              3.000e+000
   Cl-                   2.084e+000  2.167e+000     0.319     0.336     0.017
   HCl                   9.161e-001  9.161e-001    -0.038    -0.038     0.000
   KCl                   2.861e-004  2.861e-004    -3.543    -3.543     0.000
   Cl2                   2.897e-039  2.897e-039   -38.538   -38.538     0.000
   ClO4-                 0.000e+000  0.000e+000  -158.627  -158.627     0.000
H(0)            7.816e-011
   H2                    3.908e-011  3.908e-011   -10.408   -10.408     0.000
K               1.000e-003
   K+                    7.137e-004  4.174e-004    -3.146    -3.379    -0.233
   KCl                   2.861e-004  2.861e-004    -3.543    -3.543     0.000
   K(NO3)                1.728e-007  1.728e-007    -6.762    -6.762     0.000
   K(OH)                 6.003e-019  6.003e-019   -18.222   -18.222     0.000
N(5)            1.000e-003
   NO3-                  9.998e-004  5.848e-004    -3.000    -3.233    -0.233
   K(NO3)                1.728e-007  1.728e-007    -6.762    -6.762     0.000
O(0)            0.000e+000
   O2                    0.000e+000  0.000e+000   -71.416   -71.416     0.000

------------------------------Saturation indices-------------------------------

	Phase               SI log IAP  log KT

	Cl2(g)          -37.31    8.67   45.98  Cl2
	H2(g)            -7.33   -7.33    0.00  H2
	H2O(g)           -1.55  -43.04  -41.49  H2O
	HCl(g)           -5.62    0.67    6.29  HCl
	K(cr)           -56.87   -7.38   49.49  K
	K(NO3)(s)        -6.51   -6.61   -0.10  K(NO3)
	K(OH)(s)        -28.36   -3.76   24.60  K(OH)
	K2O(s)          -91.59   -7.48   84.11  K2O
	O2(g)           -68.52  -71.42   -2.90  O2
	Sylvite          -3.91   -3.04    0.87  KCl

------------------
End of simulation.
------------------

------------------------------------
Reading input data for simulation 2.
------------------------------------

-----------
End of run.
-----------

