   Input file: transport
  Output file: transport.out
Database file: ../database/phreeqc.dat

------------------
Reading data base.
------------------

	SOLUTION_MASTER_SPECIES
	SOLUTION_SPECIES
	PHASES
	EXCHANGE_MASTER_SPECIES
	EXCHANGE_SPECIES
	SURFACE_MASTER_SPECIES
	SURFACE_SPECIES
	RATES
	END
------------------------------------
Reading input data for simulation 1.
------------------------------------

	DATABASE ../database/phreeqc.dat
	knobs
		logfile
	PRINT
		status false
	SOLUTION 0
		ph	3.3
		temp	25
		units mmol/l
		Ca	11.6
		Mg	15.8
		Na	9.4
		K	0.2
		Fe	52.4
		Mn	1.34
		Al	10.5
		Cu	2.4
		Zn	0.33
		S(6)	100 	charge
		Cl	9.5
		C(4)	0.1	CO2(g)  -3.5
	SOLUTION 1-5
		ph	7.19
		temp	25
		units mmol/l
		O(0)	0.22
		Ca	1.2	charge
		Mg	0.37
		Na	0.96
		K	0.03
		Fe	3.5e-7	mol/l
		Mn	1.0e-7	mol/l
		Al	1.8e-6  mol/l
		Cu	1.5e-7	mol/l
		Zn	2.5e-7	mol/l
		S(6)	0.7
		Cl	0.48
		Alkalinity	2.3
	SURFACE 1-5
		SurfOH	0.15	600.	65.
	PURE_PHASES 1-5
		MnO2		0.0	0.045
		Fe(OH)3		0.0	0.73
		Calcite		0.0	0.14
		Gypsum 		0.0	0.0
		Al(OH)3(a)	0.0	0.0
		AlOHSO4		0.0	0.0
	USE PURE_PHASES none
	USE SURFACE none
	ADVECTION
		cells		5
		shifts		25
		print_frequency	5
	SURFACE_MASTER_SPECIES
		Surf	SurfOH
	SURFACE_SPECIES
		SurfOH = SurfOH
		log_k	0.0
		SurfOH  + H+ = SurfOH2+
		log_k	7.29
		SurfOH = SurfO- + H+
		log_k	-8.93
		SurfOH + Cu+2 = SurfOCu+ + H+
		log_k	0.6
		SurfOH + Zn+2 = SurfOZn+ + H+
		log_k	-1.99
		SurfOH + Mn+2 = SurfOMn+ + H+
		log_k	-2.6
	PHASES
		Fe(OH)3
		Fe(OH)3 + 3 H+ = Fe+3 + 3 H2O                                                 
		log_k	4.891
		MnO2
		MnO2 + 4 H+ + 2 e- = Mn+2 + 2 H2O                                          
		log_k		41.380
		delta_h	-65.110 kcal
		Al(OH)3(a)
		Al(OH)3 + 3H+ = Al+3 + 3H2O 
		log_k		10.8
		delta_h	-26.5 kcal
		AlOHSO4
		AlOHSO4 + H+ = Al+3 + SO4-2 + H2O 
		log_k	-2.2
	END
-------------------------------------------
Beginning of initial solution calculations.
-------------------------------------------

Initial solution 0.	

-----------------------------Solution composition------------------------------

	Elements           Molality       Moles

	Al               1.065e-002  1.065e-002
	C(4)             1.029e-005  1.029e-005  Equilibrium with CO2(g)
	Ca               1.177e-002  1.177e-002
	Cl               9.640e-003  9.640e-003
	Cu               2.435e-003  2.435e-003
	Fe               5.317e-002  5.317e-002
	K                2.029e-004  2.029e-004
	Mg               1.603e-002  1.603e-002
	Mn               1.360e-003  1.360e-003
	Na               9.538e-003  9.538e-003
	S(6)             1.020e-001  1.020e-001  Charge balance
	Zn               3.348e-004  3.348e-004

----------------------------Description of solution----------------------------

                                       pH  =   3.300    
                                       pe  =   4.000    
       Specific Conductance (uS/cm, 25 oC) = 9069
                          Density (g/cm3)  =   1.00992
                        Activity of water  =   0.997
                           Ionic strength  =  2.096e-001
                       Mass of water (kg)  =  1.000e+000
                 Total alkalinity (eq/kg)  = -1.672e-003
                       Total CO2 (mol/kg)  =  1.029e-005
                      Temperature (deg C)  =  25.000
                  Electrical balance (eq)  = -5.741e-011
 Percent error, 100*(Cat-|An|)/(Cat+|An|)  =  -0.00
                               Iterations  =   9
                                  Total H  = 1.110141e+002
                                  Total O  = 5.591406e+001

----------------------------Distribution of species----------------------------

                                                   Log       Log         Log 
   Species                 Molality    Activity  Molality  Activity     Gamma

   H+                    6.297e-004  5.012e-004    -3.201    -3.300    -0.099
   OH-                   2.832e-011  1.992e-011   -10.548   -10.701    -0.153
   H2O                   5.551e+001  9.972e-001     1.744    -0.001     0.000
Al              1.065e-002
   AlSO4+                6.759e-003  5.034e-003    -2.170    -2.298    -0.128
   Al(SO4)2-             3.004e-003  2.238e-003    -2.522    -2.650    -0.128
   Al+3                  8.832e-004  1.133e-004    -3.054    -3.946    -0.892
   AlOH+2                7.272e-006  2.238e-006    -5.138    -5.650    -0.512
   AlHSO4+2              7.268e-007  2.237e-007    -6.139    -6.650    -0.512
   Al(OH)2+              4.686e-008  3.491e-008    -7.329    -7.457    -0.128
   Al(OH)3               9.751e-012  1.023e-011   -11.011   -10.990     0.021
   Al(OH)4-              5.152e-014  3.837e-014   -13.288   -13.416    -0.128
C(4)            1.029e-005
   CO2                   1.026e-005  1.077e-005    -4.989    -4.968     0.021
   HCO3-                 1.281e-008  9.527e-009    -7.892    -8.021    -0.129
   FeHCO3+               1.237e-008  9.213e-009    -7.908    -8.036    -0.128
   MgHCO3+               3.945e-010  2.939e-010    -9.404    -9.532    -0.128
   CaHCO3+               3.300e-010  2.454e-010    -9.481    -9.610    -0.129
   MnHCO3+               2.812e-010  2.095e-010    -9.551    -9.679    -0.128
   ZnHCO3+               6.917e-011  5.152e-011   -10.160   -10.288    -0.128
   NaHCO3                3.374e-011  3.541e-011   -10.472   -10.451     0.021
   FeCO3                 1.970e-013  2.068e-013   -12.705   -12.684     0.021
   MnCO3                 1.665e-014  1.747e-014   -13.779   -13.758     0.021
   ZnCO3                 7.281e-015  7.641e-015   -14.138   -14.117     0.021
   CO3-2                 2.917e-015  8.915e-016   -14.535   -15.050    -0.515
   CaCO3                 2.881e-015  3.023e-015   -14.540   -14.520     0.021
   MgCO3                 2.137e-015  2.242e-015   -14.670   -14.649     0.021
   NaCO3-                1.473e-016  1.097e-016   -15.832   -15.960    -0.128
   Zn(CO3)2-2            4.731e-025  1.456e-025   -24.325   -24.837    -0.512
Ca              1.177e-002
   Ca+2                  6.353e-003  2.019e-003    -2.197    -2.695    -0.498
   CaSO4                 5.395e-003  5.662e-003    -2.268    -2.247     0.021
   CaHSO4+               2.232e-005  1.662e-005    -4.651    -4.779    -0.128
   CaHCO3+               3.300e-010  2.454e-010    -9.481    -9.610    -0.129
   CaOH+                 8.949e-013  6.666e-013   -12.048   -12.176    -0.128
   CaCO3                 2.881e-015  3.023e-015   -14.540   -14.520     0.021
Cl              9.640e-003
   Cl-                   9.509e-003  6.737e-003    -2.022    -2.172    -0.150
   FeCl+                 1.207e-004  8.993e-005    -3.918    -4.046    -0.128
   MnCl+                 9.089e-006  6.770e-006    -5.041    -5.169    -0.128
   ZnCl+                 1.046e-006  7.789e-007    -5.981    -6.109    -0.128
   MnCl2                 1.897e-008  1.991e-008    -7.722    -7.701     0.021
   ZnCl2                 5.236e-009  5.495e-009    -8.281    -8.260     0.021
   ZnCl3-                5.576e-011  4.154e-011   -10.254   -10.382    -0.128
   MnCl3-                4.960e-011  3.694e-011   -10.305   -10.432    -0.128
   FeCl+2                6.103e-012  1.879e-012   -11.214   -11.726    -0.512
   ZnCl4-2               4.556e-013  1.403e-013   -12.341   -12.853    -0.512
   FeCl2+                7.591e-014  5.654e-014   -13.120   -13.248    -0.128
   FeCl3                 3.630e-017  3.809e-017   -16.440   -16.419     0.021
Cu(1)           3.197e-005
   Cu+                   3.197e-005  2.164e-005    -4.495    -4.665    -0.169
Cu(2)           2.403e-003
   Cu+2                  1.276e-003  4.124e-004    -2.894    -3.385    -0.490
   CuSO4                 1.128e-003  1.183e-003    -2.948    -2.927     0.021
   CuOH+                 1.147e-008  8.205e-009    -7.940    -8.086    -0.146
   Cu(OH)2               3.250e-011  3.411e-011   -10.488   -10.467     0.021
   Cu(OH)3-              5.490e-021  4.089e-021   -20.260   -20.388    -0.128
   Cu(OH)4-2             5.273e-030  1.623e-030   -29.278   -29.790    -0.512
Fe(2)           5.317e-002
   Fe+2                  2.991e-002  9.670e-003    -1.524    -2.015    -0.490
   FeSO4                 2.303e-002  2.417e-002    -1.638    -1.617     0.021
   FeCl+                 1.207e-004  8.993e-005    -3.918    -4.046    -0.128
   FeHSO4+               1.069e-004  7.963e-005    -3.971    -4.099    -0.128
   FeHCO3+               1.237e-008  9.213e-009    -7.908    -8.036    -0.128
   FeOH+                 8.168e-009  6.084e-009    -8.088    -8.216    -0.128
   FeCO3                 1.970e-013  2.068e-013   -12.705   -12.684     0.021
Fe(3)           3.073e-009
   FeSO4+                1.911e-009  1.423e-009    -8.719    -8.847    -0.128
   Fe(SO4)2-             5.876e-010  4.377e-010    -9.231    -9.359    -0.128
   FeOH+2                3.854e-010  1.186e-010    -9.414    -9.926    -0.512
   Fe(OH)2+              1.049e-010  7.816e-011    -9.979   -10.107    -0.128
   Fe+3                  7.201e-011  9.235e-012   -10.143   -11.035    -0.892
   FeHSO4+2              6.205e-012  1.910e-012   -11.207   -11.719    -0.512
   FeCl+2                6.103e-012  1.879e-012   -11.214   -11.726    -0.512
   FeCl2+                7.591e-014  5.654e-014   -13.120   -13.248    -0.128
   Fe(OH)3               1.909e-014  2.003e-014   -13.719   -13.698     0.021
   Fe2(OH)2+4            4.218e-017  3.788e-019   -16.375   -18.422    -2.047
   FeCl3                 3.630e-017  3.809e-017   -16.440   -16.419     0.021
   Fe(OH)4-              4.880e-020  3.635e-020   -19.312   -19.439    -0.128
   Fe3(OH)4+5            9.758e-024  6.185e-027   -23.011   -26.209    -3.198
H(0)            3.389e-018
   H2                    1.694e-018  1.778e-018   -17.771   -17.750     0.021
K               2.029e-004
   K+                    1.855e-004  1.314e-004    -3.732    -3.881    -0.150
   KSO4-                 1.743e-005  1.298e-005    -4.759    -4.887    -0.128
   KOH                   8.640e-016  9.068e-016   -15.063   -15.043     0.021
Mg              1.603e-002
   MgSO4                 8.277e-003  8.686e-003    -2.082    -2.061     0.021
   Mg+2                  7.756e-003  2.636e-003    -2.110    -2.579    -0.469
   MgHCO3+               3.945e-010  2.939e-010    -9.404    -9.532    -0.128
   MgOH+                 2.556e-011  1.904e-011   -10.592   -10.720    -0.128
   MgCO3                 2.137e-015  2.242e-015   -14.670   -14.649     0.021
Mn(2)           1.360e-003
   Mn+2                  7.630e-004  2.467e-004    -3.117    -3.608    -0.490
   MnSO4                 5.875e-004  6.166e-004    -3.231    -3.210     0.021
   MnCl+                 9.089e-006  6.770e-006    -5.041    -5.169    -0.128
   MnCl2                 1.897e-008  1.991e-008    -7.722    -7.701     0.021
   MnHCO3+               2.812e-010  2.095e-010    -9.551    -9.679    -0.128
   MnCl3-                4.960e-011  3.694e-011   -10.305   -10.432    -0.128
   MnOH+                 1.694e-011  1.262e-011   -10.771   -10.899    -0.128
   MnCO3                 1.665e-014  1.747e-014   -13.779   -13.758     0.021
Mn(3)           1.080e-024
   Mn+3                  1.080e-024  7.623e-026   -23.967   -25.118    -1.151
Na              9.538e-003
   Na+                   8.913e-003  6.609e-003    -2.050    -2.180    -0.130
   NaSO4-                6.250e-004  4.656e-004    -3.204    -3.332    -0.128
   NaHCO3                3.374e-011  3.541e-011   -10.472   -10.451     0.021
   NaOH                  8.278e-014  8.688e-014   -13.082   -13.061     0.021
   NaCO3-                1.473e-016  1.097e-016   -15.832   -15.960    -0.128
O(0)            0.000e+000
   O2                    0.000e+000  0.000e+000   -56.903   -56.882     0.021
S(6)            1.020e-001
   SO4-2                 4.884e-002  1.406e-002    -1.311    -1.852    -0.541
   FeSO4                 2.303e-002  2.417e-002    -1.638    -1.617     0.021
   MgSO4                 8.277e-003  8.686e-003    -2.082    -2.061     0.021
   AlSO4+                6.759e-003  5.034e-003    -2.170    -2.298    -0.128
   CaSO4                 5.395e-003  5.662e-003    -2.268    -2.247     0.021
   Al(SO4)2-             3.004e-003  2.238e-003    -2.522    -2.650    -0.128
   CuSO4                 1.128e-003  1.183e-003    -2.948    -2.927     0.021
   HSO4-                 9.195e-004  6.849e-004    -3.036    -3.164    -0.128
   NaSO4-                6.250e-004  4.656e-004    -3.204    -3.332    -0.128
   MnSO4                 5.875e-004  6.166e-004    -3.231    -3.210     0.021
   ZnSO4                 1.349e-004  1.415e-004    -3.870    -3.849     0.021
   FeHSO4+               1.069e-004  7.963e-005    -3.971    -4.099    -0.128
   Zn(SO4)2-2            5.253e-005  1.617e-005    -4.280    -4.791    -0.512
   CaHSO4+               2.232e-005  1.662e-005    -4.651    -4.779    -0.128
   KSO4-                 1.743e-005  1.298e-005    -4.759    -4.887    -0.128
   AlHSO4+2              7.268e-007  2.237e-007    -6.139    -6.650    -0.512
   FeSO4+                1.911e-009  1.423e-009    -8.719    -8.847    -0.128
   Fe(SO4)2-             5.876e-010  4.377e-010    -9.231    -9.359    -0.128
   FeHSO4+2              6.205e-012  1.910e-012   -11.207   -11.719    -0.512
Zn              3.348e-004
   Zn+2                  1.464e-004  4.296e-005    -3.834    -4.367    -0.532
   ZnSO4                 1.349e-004  1.415e-004    -3.870    -3.849     0.021
   Zn(SO4)2-2            5.253e-005  1.617e-005    -4.280    -4.791    -0.512
   ZnCl+                 1.046e-006  7.789e-007    -5.981    -6.109    -0.128
   ZnCl2                 5.236e-009  5.495e-009    -8.281    -8.260     0.021
   ZnOH+                 1.258e-010  9.371e-011    -9.900   -10.028    -0.128
   ZnHCO3+               6.917e-011  5.152e-011   -10.160   -10.288    -0.128
   ZnCl3-                5.576e-011  4.154e-011   -10.254   -10.382    -0.128
   ZnCl4-2               4.556e-013  1.403e-013   -12.341   -12.853    -0.512
   ZnCO3                 7.281e-015  7.641e-015   -14.138   -14.117     0.021
   Zn(OH)2               2.040e-015  2.141e-015   -14.690   -14.669     0.021
   Zn(OH)3-              1.808e-023  1.347e-023   -22.743   -22.871    -0.128
   Zn(CO3)2-2            4.731e-025  1.456e-025   -24.325   -24.837    -0.512
   Zn(OH)4-2             1.380e-032  4.247e-033   -31.860   -32.372    -0.512

------------------------------Saturation indices-------------------------------

	Phase               SI log IAP  log KT

	Al(OH)3(a)       -4.85    5.95   10.80  Al(OH)3
	AlOHSO4          -0.30   -2.50   -2.20  AlOHSO4
	Alunite           1.77    0.37   -1.40  KAl3(SO4)2(OH)6
	Anhydrite        -0.19   -4.55   -4.36  CaSO4
	Aragonite        -9.41  -17.74   -8.34  CaCO3
	Calcite          -9.26  -17.74   -8.48  CaCO3
	CO2(g)           -3.50   -4.97   -1.47  CO2
	Dolomite        -18.28  -35.37  -17.09  CaMg(CO3)2
	Fe(OH)3          -6.03   -1.14    4.89  Fe(OH)3
	Fe(OH)3(a)       -6.03   -1.14    4.89  Fe(OH)3
	Gibbsite         -2.16    5.95    8.11  Al(OH)3
	Goethite         -0.14   -1.14   -1.00  FeOOH
	Gypsum            0.03   -4.55   -4.58  CaSO4:2H2O
	H2(g)           -14.60  -17.75   -3.15  H2
	H2O(g)           -1.51   -0.00    1.51  H2O
	Halite           -5.93   -4.35    1.58  NaCl
	Hausmannite     -37.46   23.57   61.03  Mn3O4
	Hematite          1.74   -2.27   -4.01  Fe2O3
	Jarosite-K      -11.69  -20.90   -9.21  KFe3(SO4)2(OH)6
	Manganite       -15.05   10.29   25.34  MnOOH
	Melanterite      -1.67   -3.88   -2.21  FeSO4:7H2O
	MnO2            -23.79   17.59   41.38  MnO2
	O2(g)           -53.99  -56.88   -2.89  O2
	Pyrochroite     -12.21    2.99   15.20  Mn(OH)2
	Pyrolusite      -23.79   17.59   41.38  MnO2
	Rhodochrosite    -7.53  -18.66  -11.13  MnCO3
	Siderite         -6.17  -17.06  -10.89  FeCO3
	Smithsonite      -9.42  -19.42  -10.00  ZnCO3
	Zn(OH)2(e)       -9.27    2.23   11.50  Zn(OH)2

Initial solution 1.	

-----------------------------Solution composition------------------------------

	Elements           Molality       Moles

	Al               1.801e-006  1.801e-006
	Alkalinity       2.301e-003  2.301e-003
	Ca               1.222e-003  1.222e-003  Charge balance
	Cl               4.801e-004  4.801e-004
	Cu               1.500e-007  1.500e-007
	Fe               3.501e-007  3.501e-007
	K                3.001e-005  3.001e-005
	Mg               3.701e-004  3.701e-004
	Mn               1.000e-007  1.000e-007
	Na               9.603e-004  9.603e-004
	O(0)             2.201e-004  2.201e-004
	S(6)             7.002e-004  7.002e-004
	Zn               2.501e-007  2.501e-007

----------------------------Description of solution----------------------------

                                       pH  =   7.190    
                                       pe  =   4.000    
       Specific Conductance (uS/cm, 25 oC) = 411
                          Density (g/cm3)  =   0.99731
                        Activity of water  =   1.000
                           Ionic strength  =  6.013e-003
                       Mass of water (kg)  =  1.000e+000
                    Total carbon (mol/kg)  =  2.590e-003
                       Total CO2 (mol/kg)  =  2.590e-003
                      Temperature (deg C)  =  25.000
                  Electrical balance (eq)  =  1.384e-011
 Percent error, 100*(Cat-|An|)/(Cat+|An|)  =   0.00
                               Iterations  =   9
                                  Total H  = 1.110147e+002
                                  Total O  = 5.551671e+001

---------------------------------Redox couples---------------------------------

	Redox couple             pe  Eh (volts)

	O(-2)/O(0)          13.3406      0.7892

----------------------------Distribution of species----------------------------

                                                   Log       Log         Log 
   Species                 Molality    Activity  Molality  Activity     Gamma

   OH-                   1.685e-007  1.550e-007    -6.773    -6.810    -0.036
   H+                    6.952e-008  6.457e-008    -7.158    -7.190    -0.032
   H2O                   5.551e+001  9.999e-001     1.744    -0.000     0.000
Al              1.801e-006
   Al(OH)4-              1.720e-006  1.584e-006    -5.764    -5.800    -0.036
   Al(OH)3               5.421e-008  5.428e-008    -7.266    -7.265     0.001
   Al(OH)2+              2.583e-008  2.379e-008    -7.588    -7.624    -0.036
   AlOH+2                2.724e-010  1.960e-010    -9.565    -9.708    -0.143
   Al+3                  2.479e-012  1.274e-012   -11.606   -11.895    -0.289
   AlSO4+                1.906e-012  1.755e-012   -11.720   -11.756    -0.036
   Al(SO4)2-             2.626e-014  2.418e-014   -13.581   -13.616    -0.036
   AlHSO4+2              1.397e-020  1.005e-020   -19.855   -19.998    -0.143
C(4)            2.590e-003
   HCO3-                 2.253e-003  2.080e-003    -2.647    -2.682    -0.035
   CO2                   3.015e-004  3.019e-004    -3.521    -3.520     0.001
   CaHCO3+               2.348e-005  2.168e-005    -4.629    -4.664    -0.035
   MgHCO3+               6.511e-006  5.996e-006    -5.186    -5.222    -0.036
   CO3-2                 2.080e-006  1.511e-006    -5.682    -5.821    -0.139
   CaCO3                 2.070e-006  2.073e-006    -5.684    -5.683     0.001
   NaHCO3                1.030e-006  1.032e-006    -5.987    -5.986     0.001
   MgCO3                 3.547e-007  3.552e-007    -6.450    -6.450     0.001
   ZnCO3                 3.576e-008  3.581e-008    -7.447    -7.446     0.001
   ZnHCO3+               3.377e-008  3.111e-008    -7.471    -7.507    -0.036
   NaCO3-                2.694e-008  2.482e-008    -7.570    -7.605    -0.036
   FeHCO3+               2.441e-008  2.248e-008    -7.612    -7.648    -0.036
   MnHCO3+               1.136e-008  1.046e-008    -7.945    -7.980    -0.036
   MnCO3                 6.765e-009  6.774e-009    -8.170    -8.169     0.001
   FeCO3                 3.912e-009  3.917e-009    -8.408    -8.407     0.001
   Zn(CO3)2-2            1.607e-009  1.157e-009    -8.794    -8.937    -0.143
Ca              1.222e-003
   Ca+2                  1.125e-003  8.169e-004    -2.949    -3.088    -0.139
   CaSO4                 7.092e-005  7.101e-005    -4.149    -4.149     0.001
   CaHCO3+               2.348e-005  2.168e-005    -4.629    -4.664    -0.035
   CaCO3                 2.070e-006  2.073e-006    -5.684    -5.683     0.001
   CaOH+                 2.280e-009  2.100e-009    -8.642    -8.678    -0.036
   CaHSO4+               2.916e-011  2.686e-011   -10.535   -10.571    -0.036
Cl              4.801e-004
   Cl-                   4.801e-004  4.418e-004    -3.319    -3.355    -0.036
   ZnCl+                 1.534e-010  1.413e-010    -9.814    -9.850    -0.036
   MnCl+                 1.103e-010  1.016e-010    -9.957    -9.993    -0.036
   FeCl+                 7.157e-011  6.592e-011   -10.145   -10.181    -0.036
   ZnCl2                 6.526e-014  6.535e-014   -13.185   -13.185     0.001
   MnCl2                 1.956e-014  1.959e-014   -13.709   -13.708     0.001
   ZnCl3-                3.517e-017  3.239e-017   -16.454   -16.490    -0.036
   MnCl3-                2.588e-018  2.384e-018   -17.587   -17.623    -0.036
   FeCl+2                1.914e-018  1.377e-018   -17.718   -17.861    -0.143
   ZnCl4-2               9.966e-021  7.171e-021   -20.001   -20.144    -0.143
   FeCl2+                2.951e-021  2.718e-021   -20.530   -20.566    -0.036
   FeCl3                 1.199e-025  1.201e-025   -24.921   -24.921     0.001
Cu(1)           1.282e-009
   Cu+                   1.282e-009  1.177e-009    -8.892    -8.929    -0.037
Cu(2)           1.488e-007
   Cu(OH)2               1.122e-007  1.124e-007    -6.950    -6.949     0.001
   Cu+2                  3.075e-008  2.243e-008    -7.512    -7.649    -0.137
   CuOH+                 3.773e-009  3.474e-009    -8.423    -8.459    -0.036
   CuSO4                 1.993e-009  1.995e-009    -8.701    -8.700     0.001
   Cu(OH)3-              1.139e-013  1.049e-013   -12.944   -12.979    -0.036
   Cu(OH)4-2             4.504e-019  3.241e-019   -18.346   -18.489    -0.143
Fe(2)           1.855e-007
   Fe+2                  1.482e-007  1.081e-007    -6.829    -6.966    -0.137
   FeHCO3+               2.441e-008  2.248e-008    -7.612    -7.648    -0.036
   FeSO4                 8.364e-009  8.375e-009    -8.078    -8.077     0.001
   FeCO3                 3.912e-009  3.917e-009    -8.408    -8.407     0.001
   FeOH+                 5.748e-010  5.294e-010    -9.240    -9.276    -0.036
   FeCl+                 7.157e-011  6.592e-011   -10.145   -10.181    -0.036
   FeHSO4+               3.859e-015  3.554e-015   -14.413   -14.449    -0.036
Fe(3)           1.646e-007
   Fe(OH)3               1.055e-007  1.056e-007    -6.977    -6.976     0.001
   Fe(OH)2+              5.747e-008  5.293e-008    -7.241    -7.276    -0.036
   Fe(OH)4-              1.619e-009  1.492e-009    -8.791    -8.826    -0.036
   FeOH+2                1.435e-011  1.032e-011   -10.843   -10.986    -0.143
   FeSO4+                5.355e-016  4.932e-016   -15.271   -15.307    -0.036
   Fe+3                  2.009e-016  1.032e-016   -15.697   -15.986    -0.289
   Fe(SO4)2-             5.104e-018  4.701e-018   -17.292   -17.328    -0.036
   FeCl+2                1.914e-018  1.377e-018   -17.718   -17.861    -0.143
   Fe2(OH)2+4            1.070e-020  2.868e-021   -19.971   -20.542    -0.572
   FeCl2+                2.951e-021  2.718e-021   -20.530   -20.566    -0.036
   FeHSO4+2              1.185e-022  8.526e-023   -21.926   -22.069    -0.143
   Fe3(OH)4+5            2.481e-025  3.172e-026   -24.605   -25.499    -0.893
   FeCl3                 1.199e-025  1.201e-025   -24.921   -24.921     0.001
H(0)            5.894e-026
   H2                    2.947e-026  2.951e-026   -25.531   -25.530     0.001
K               3.001e-005
   K+                    2.992e-005  2.753e-005    -4.524    -4.560    -0.036
   KSO4-                 9.149e-008  8.427e-008    -7.039    -7.074    -0.036
   KOH                   1.476e-012  1.478e-012   -11.831   -11.830     0.001
Mg              3.701e-004
   Mg+2                  3.381e-004  2.464e-004    -3.471    -3.608    -0.137
   MgSO4                 2.513e-005  2.517e-005    -4.600    -4.599     0.001
   MgHCO3+               6.511e-006  5.996e-006    -5.186    -5.222    -0.036
   MgCO3                 3.547e-007  3.552e-007    -6.450    -6.450     0.001
   MgOH+                 1.504e-008  1.386e-008    -7.823    -7.858    -0.036
Mn(2)           1.000e-007
   Mn+2                  7.740e-008  5.645e-008    -7.111    -7.248    -0.137
   MnHCO3+               1.136e-008  1.046e-008    -7.945    -7.980    -0.036
   MnCO3                 6.765e-009  6.774e-009    -8.170    -8.169     0.001
   MnSO4                 4.368e-009  4.374e-009    -8.360    -8.359     0.001
   MnCl+                 1.103e-010  1.016e-010    -9.957    -9.993    -0.036
   MnOH+                 2.440e-011  2.247e-011   -10.613   -10.648    -0.036
   MnCl2                 1.956e-014  1.959e-014   -13.709   -13.708     0.001
   MnCl3-                2.588e-018  2.384e-018   -17.587   -17.623    -0.036
Mn(3)           3.658e-029
   Mn+3                  3.658e-029  1.745e-029   -28.437   -28.758    -0.322
Na              9.603e-004
   Na+                   9.571e-004  8.822e-004    -3.019    -3.054    -0.035
   NaSO4-                2.092e-006  1.926e-006    -5.680    -5.715    -0.036
   NaHCO3                1.030e-006  1.032e-006    -5.987    -5.986     0.001
   NaCO3-                2.694e-008  2.482e-008    -7.570    -7.605    -0.036
   NaOH                  9.014e-011  9.027e-011   -10.045   -10.044     0.001
O(0)            2.201e-004
   O2                    1.100e-004  1.102e-004    -3.958    -3.958     0.001
S(6)            7.002e-004
   SO4-2                 6.019e-004  4.357e-004    -3.220    -3.361    -0.140
   CaSO4                 7.092e-005  7.101e-005    -4.149    -4.149     0.001
   MgSO4                 2.513e-005  2.517e-005    -4.600    -4.599     0.001
   NaSO4-                2.092e-006  1.926e-006    -5.680    -5.715    -0.036
   KSO4-                 9.149e-008  8.427e-008    -7.039    -7.074    -0.036
   ZnSO4                 1.212e-008  1.213e-008    -7.917    -7.916     0.001
   FeSO4                 8.364e-009  8.375e-009    -8.078    -8.077     0.001
   MnSO4                 4.368e-009  4.374e-009    -8.360    -8.359     0.001
   HSO4-                 2.969e-009  2.735e-009    -8.527    -8.563    -0.036
   CuSO4                 1.993e-009  1.995e-009    -8.701    -8.700     0.001
   Zn(SO4)2-2            5.972e-011  4.297e-011   -10.224   -10.367    -0.143
   CaHSO4+               2.916e-011  2.686e-011   -10.535   -10.571    -0.036
   AlSO4+                1.906e-012  1.755e-012   -11.720   -11.756    -0.036
   Al(SO4)2-             2.626e-014  2.418e-014   -13.581   -13.616    -0.036
   FeHSO4+               3.859e-015  3.554e-015   -14.413   -14.449    -0.036
   FeSO4+                5.355e-016  4.932e-016   -15.271   -15.307    -0.036
   Fe(SO4)2-             5.104e-018  4.701e-018   -17.292   -17.328    -0.036
   AlHSO4+2              1.397e-020  1.005e-020   -19.855   -19.998    -0.143
   FeHSO4+2              1.185e-022  8.526e-023   -21.926   -22.069    -0.143
Zn              2.501e-007
   Zn+2                  1.641e-007  1.188e-007    -6.785    -6.925    -0.140
   ZnCO3                 3.576e-008  3.581e-008    -7.447    -7.446     0.001
   ZnHCO3+               3.377e-008  3.111e-008    -7.471    -7.507    -0.036
   ZnSO4                 1.212e-008  1.213e-008    -7.917    -7.916     0.001
   ZnOH+                 2.190e-009  2.017e-009    -8.659    -8.695    -0.036
   Zn(CO3)2-2            1.607e-009  1.157e-009    -8.794    -8.937    -0.143
   Zn(OH)2               3.582e-010  3.587e-010    -9.446    -9.445     0.001
   ZnCl+                 1.534e-010  1.413e-010    -9.814    -9.850    -0.036
   Zn(SO4)2-2            5.972e-011  4.297e-011   -10.224   -10.367    -0.143
   ZnCl2                 6.526e-014  6.535e-014   -13.185   -13.185     0.001
   Zn(OH)3-              1.907e-014  1.757e-014   -13.720   -13.755    -0.036
   ZnCl3-                3.517e-017  3.239e-017   -16.454   -16.490    -0.036
   Zn(OH)4-2             5.992e-020  4.312e-020   -19.222   -19.365    -0.143
   ZnCl4-2               9.966e-021  7.171e-021   -20.001   -20.144    -0.143

------------------------------Saturation indices-------------------------------

	Phase               SI log IAP  log KT

	Al(OH)3(a)       -1.12    9.68   10.80  Al(OH)3
	AlOHSO4          -5.87   -8.07   -2.20  AlOHSO4
	Alunite          -2.43   -3.83   -1.40  KAl3(SO4)2(OH)6
	Anhydrite        -2.09   -6.45   -4.36  CaSO4
	Aragonite        -0.57   -8.91   -8.34  CaCO3
	Calcite          -0.43   -8.91   -8.48  CaCO3
	CO2(g)           -2.05   -3.52   -1.47  CO2
	Dolomite         -1.25  -18.34  -17.09  CaMg(CO3)2
	Fe(OH)3           0.69    5.58    4.89  Fe(OH)3
	Fe(OH)3(a)        0.69    5.58    4.89  Fe(OH)3
	Gibbsite          1.57    9.68    8.11  Al(OH)3
	Goethite          6.58    5.58   -1.00  FeOOH
	Gypsum           -1.87   -6.45   -4.58  CaSO4:2H2O
	H2(g)           -22.38  -25.53   -3.15  H2
	H2O(g)           -1.51   -0.00    1.51  H2O
	Halite           -7.99   -6.41    1.58  NaCl
	Hausmannite     -17.26   43.77   61.03  Mn3O4
	Hematite         15.18   11.17   -4.01  Fe2O3
	Jarosite-K       -6.89  -16.10   -9.21  KFe3(SO4)2(OH)6
	Manganite        -7.02   18.32   25.34  MnOOH
	Melanterite      -8.12  -10.33   -2.21  FeSO4:7H2O
	MnO2            -11.87   29.51   41.38  MnO2
	O2(g)            -1.07   -3.96   -2.89  O2
	Pyrochroite      -8.07    7.13   15.20  Mn(OH)2
	Pyrolusite      -11.87   29.51   41.38  MnO2
	Rhodochrosite    -1.94  -13.07  -11.13  MnCO3
	Siderite         -1.90  -12.79  -10.89  FeCO3
	Smithsonite      -2.75  -12.75  -10.00  ZnCO3
	Zn(OH)2(e)       -4.05    7.45   11.50  Zn(OH)2

------------------------------------
Beginning of advection calculations.
------------------------------------

Beginning of advection time step 1, cumulative pore volumes 0.200000.
Beginning of advection time step 2, cumulative pore volumes 0.400000.
Beginning of advection time step 3, cumulative pore volumes 0.600000.
Beginning of advection time step 4, cumulative pore volumes 0.800000.
Beginning of advection time step 5, cumulative pore volumes 1.000000.

Cell 1.

Using solution 1.	
Using surface 1.	Surface assemblage after simulation 1.
Using pure phase assemblage 1.	Pure-phase assemblage after simulation 1.

-------------------------------Phase assemblage--------------------------------

                                                      Moles in assemblage
Phase                  SI log IAP  log KT      Initial       Final       Delta

Al(OH)3(a)           0.00   10.80   10.80   4.256e-002  4.638e-002  3.822e-003
AlOHSO4              0.00   -2.20   -2.20   0.000e+000  6.690e-003  6.690e-003
Calcite             -4.93  -13.41   -8.48   0.000e+000           0  0.000e+000
Fe(OH)3              0.00    4.89    4.89   8.199e-001  8.199e-001 -2.943e-005
Gypsum               0.00   -4.58   -4.58   1.386e-001  1.398e-001  1.223e-003
MnO2               -15.55   25.83   41.38   0.000e+000           0  0.000e+000

------------------------------Surface composition------------------------------

Surf          
	 7.747e-002  Surface charge, eq
	 1.917e-001  sigma, C/m**2
	 1.023e-001  psi, V
	-3.980e+000  -F*psi/RT
	 1.868e-002  exp(-F*psi/RT)
	 6.000e+002  specific area, m**2/g
	 3.900e+004  m**2 for  6.500e+001 g


Surf          
	 1.500e-001  moles
	                                   Mole                     Log
	Species               Moles    Fraction    Molality    Molality

	SurfOH           6.915e-002       0.461  6.918e-002      -1.160
	SurfOH2+         6.494e-002       0.433  6.496e-002      -1.187
	SurfOCu+         1.209e-002       0.081  1.209e-002      -1.917
	SurfOMn+         1.722e-003       0.011  1.723e-003      -2.764
	SurfO-           1.687e-003       0.011  1.688e-003      -2.773
	SurfOZn+         4.099e-004       0.003  4.100e-004      -3.387

-----------------------------Solution composition------------------------------

	Elements           Molality       Moles

	Al               1.424e-004  1.423e-004
	C                1.029e-005  1.029e-005
	Ca               1.055e-002  1.055e-002
	Cl               9.643e-003  9.640e-003
	Cu               3.953e-005  3.952e-005
	Fe               5.322e-002  5.320e-002
	K                2.030e-004  2.029e-004
	Mg               1.604e-002  1.603e-002
	Mn               7.739e-003  7.736e-003
	Na               9.542e-003  9.538e-003
	S                9.408e-002  9.404e-002
	Zn               6.510e-004  6.508e-004

----------------------------Description of solution----------------------------

                                       pH  =   5.589      Charge balance
                                       pe  =   3.173      Adjusted to redox equilibrium
       Specific Conductance (uS/cm, 25 oC) = 9060
                          Density (g/cm3)  =   1.00947
                        Activity of water  =   0.997
                           Ionic strength  =  2.068e-001
                       Mass of water (kg)  =  9.996e-001
                 Total alkalinity (eq/kg)  =  4.881e-005
                       Total CO2 (mol/kg)  =  1.029e-005
                      Temperature (deg C)  =  25.000
                  Electrical balance (eq)  = -1.120e-002
 Percent error, 100*(Cat-|An|)/(Cat+|An|)  =  -5.17
                               Iterations  =   8
                                  Total H  = 1.109714e+002
                                  Total O  = 5.586189e+001

----------------------------Distribution of species----------------------------

                                                   Log       Log         Log 
   Species                 Molality    Activity  Molality  Activity     Gamma

   H+                    3.237e-006  2.578e-006    -5.490    -5.589    -0.099
   OH-                   5.497e-009  3.872e-009    -8.260    -8.412    -0.152
   H2O                   5.551e+001  9.973e-001     1.744    -0.001     0.000
Al              1.424e-004
   AlSO4+                6.920e-005  5.158e-005    -4.160    -4.288    -0.128
   Al(SO4)2-             3.274e-005  2.441e-005    -4.485    -4.612    -0.128
   Al(OH)2+              1.704e-005  1.270e-005    -4.769    -4.896    -0.128
   AlOH+2                1.357e-005  4.189e-006    -4.867    -5.378    -0.510
   Al+3                  8.450e-006  1.090e-006    -5.073    -5.963    -0.889
   Al(OH)4-              7.079e-007  5.277e-007    -6.150    -6.278    -0.128
   Al(OH)3               6.901e-007  7.238e-007    -6.161    -6.140     0.021
   AlHSO4+2              3.820e-011  1.179e-011   -10.418   -10.928    -0.510
C(-4)           0.000e+000
   CH4                   0.000e+000  0.000e+000   -50.869   -50.849     0.021
C(4)            1.029e-005
   CO2                   6.780e-006  7.110e-006    -5.169    -5.148     0.021
   HCO3-                 1.644e-006  1.223e-006    -5.784    -5.912    -0.128
   FeHCO3+               1.551e-006  1.156e-006    -5.809    -5.937    -0.128
   MnHCO3+               2.002e-007  1.492e-007    -6.699    -6.826    -0.128
   MgHCO3+               4.906e-008  3.657e-008    -7.309    -7.437    -0.128
   CaHCO3+               3.698e-008  2.753e-008    -7.432    -7.560    -0.128
   ZnHCO3+               1.652e-008  1.231e-008    -7.782    -7.910    -0.128
   FeCO3                 4.810e-009  5.045e-009    -8.318    -8.297     0.021
   NaHCO3                4.322e-009  4.533e-009    -8.364    -8.344     0.021
   MnCO3                 2.306e-009  2.419e-009    -8.637    -8.616     0.021
   ZnCO3                 3.384e-010  3.549e-010    -9.471    -9.450     0.021
   CO3-2                 7.249e-011  2.225e-011   -10.140   -10.653    -0.513
   CaCO3                 6.286e-011  6.593e-011   -10.202   -10.181     0.021
   MgCO3                 5.172e-011  5.425e-011   -10.286   -10.266     0.021
   NaCO3-                3.663e-012  2.730e-012   -11.436   -11.564    -0.128
   Zn(CO3)2-2            5.470e-016  1.689e-016   -15.262   -15.772    -0.510
Ca              1.055e-002
   Ca+2                  5.530e-003  1.764e-003    -2.257    -2.754    -0.496
   CaSO4                 5.021e-003  5.266e-003    -2.299    -2.279     0.021
   CaHSO4+               1.067e-007  7.953e-008    -6.972    -7.099    -0.128
   CaHCO3+               3.698e-008  2.753e-008    -7.432    -7.560    -0.128
   CaOH+                 1.519e-010  1.132e-010    -9.818    -9.946    -0.128
   CaCO3                 6.286e-011  6.593e-011   -10.202   -10.181     0.021
Cl              9.643e-003
   Cl-                   9.473e-003  6.722e-003    -2.024    -2.173    -0.149
   FeCl+                 1.176e-004  8.769e-005    -3.929    -4.057    -0.128
   MnCl+                 5.027e-005  3.747e-005    -4.299    -4.426    -0.128
   ZnCl+                 1.940e-006  1.446e-006    -5.712    -5.840    -0.128
   MnCl2                 1.048e-007  1.099e-007    -6.980    -6.959     0.021
   ZnCl2                 9.706e-009  1.018e-008    -8.013    -7.992     0.021
   MnCl3-                2.731e-010  2.035e-010    -9.564    -9.691    -0.128
   ZnCl3-                1.030e-010  7.677e-011    -9.987   -10.115    -0.128
   FeCl+2                8.838e-013  2.729e-013   -12.054   -12.564    -0.510
   ZnCl4-2               8.377e-013  2.586e-013   -12.077   -12.587    -0.510
   FeCl2+                1.099e-014  8.192e-015   -13.959   -14.087    -0.128
   FeCl3                 5.250e-018  5.506e-018   -17.280   -17.259     0.021
Cu(1)           3.149e-006
   Cu+                   3.149e-006  2.136e-006    -5.502    -5.670    -0.169
Cu(2)           3.638e-005
   Cu+2                  1.867e-005  6.061e-006    -4.729    -5.217    -0.489
   CuSO4                 1.766e-005  1.852e-005    -4.753    -4.732     0.021
   CuOH+                 3.274e-008  2.345e-008    -7.485    -7.630    -0.145
   Cu(OH)2               1.807e-008  1.895e-008    -7.743    -7.722     0.021
   Cu(OH)3-              5.925e-016  4.417e-016   -15.227   -15.355    -0.128
   Cu(OH)4-2             1.104e-022  3.409e-023   -21.957   -22.467    -0.510
Fe(2)           5.322e-002
   Fe+2                  2.912e-002  9.451e-003    -1.536    -2.025    -0.489
   FeSO4                 2.398e-002  2.515e-002    -1.620    -1.599     0.021
   FeCl+                 1.176e-004  8.769e-005    -3.929    -4.057    -0.128
   FeHCO3+               1.551e-006  1.156e-006    -5.809    -5.937    -0.128
   FeOH+                 1.551e-006  1.156e-006    -5.809    -5.937    -0.128
   FeHSO4+               5.717e-007  4.262e-007    -6.243    -6.370    -0.128
   FeCO3                 4.810e-009  5.045e-009    -8.318    -8.297     0.021
   Fe(HS)2               0.000e+000  0.000e+000   -80.800   -80.779     0.021
   Fe(HS)3-              0.000e+000  0.000e+000  -122.467  -122.594    -0.128
Fe(3)           6.086e-007
   Fe(OH)2+              5.769e-007  4.300e-007    -6.239    -6.367    -0.128
   Fe(OH)3               2.043e-008  2.143e-008    -7.690    -7.669     0.021
   FeOH+2                1.087e-008  3.357e-009    -7.964    -8.474    -0.510
   FeSO4+                2.959e-010  2.205e-010    -9.529    -9.657    -0.128
   Fe(SO4)2-             9.686e-011  7.220e-011   -10.014   -10.141    -0.128
   Fe+3                  1.042e-011  1.344e-012   -10.982   -11.872    -0.889
   Fe(OH)4-              1.014e-011  7.560e-012   -10.994   -11.121    -0.128
   FeCl+2                8.838e-013  2.729e-013   -12.054   -12.564    -0.510
   Fe2(OH)2+4            3.340e-014  3.033e-016   -13.476   -15.518    -2.042
   FeCl2+                1.099e-014  8.192e-015   -13.959   -14.087    -0.128
   FeHSO4+2              4.932e-015  1.523e-015   -14.307   -14.817    -0.510
   Fe3(OH)4+5            4.224e-017  2.725e-020   -16.374   -19.565    -3.190
   FeCl3                 5.250e-018  5.506e-018   -17.280   -17.259     0.021
H(0)            4.046e-021
   H2                    2.023e-021  2.122e-021   -20.694   -20.673     0.021
K               2.030e-004
   K+                    1.845e-004  1.309e-004    -3.734    -3.883    -0.149
   KSO4-                 1.847e-005  1.377e-005    -4.734    -4.861    -0.128
   KOH                   1.675e-013  1.756e-013   -12.776   -12.755     0.021
Mg              1.604e-002
   MgSO4                 8.544e-003  8.961e-003    -2.068    -2.048     0.021
   Mg+2                  7.494e-003  2.555e-003    -2.125    -2.593    -0.467
   MgHCO3+               4.906e-008  3.657e-008    -7.309    -7.437    -0.128
   MgOH+                 4.814e-009  3.588e-009    -8.318    -8.445    -0.128
   MgCO3                 5.172e-011  5.425e-011   -10.286   -10.266     0.021
Mn(2)           7.739e-003
   Mn+2                  4.216e-003  1.368e-003    -2.375    -2.864    -0.489
   MnSO4                 3.472e-003  3.641e-003    -2.459    -2.439     0.021
   MnCl+                 5.027e-005  3.747e-005    -4.299    -4.426    -0.128
   MnHCO3+               2.002e-007  1.492e-007    -6.699    -6.826    -0.128
   MnCl2                 1.048e-007  1.099e-007    -6.980    -6.959     0.021
   MnOH+                 1.825e-008  1.361e-008    -7.739    -7.866    -0.128
   MnCO3                 2.306e-009  2.419e-009    -8.637    -8.616     0.021
   MnCl3-                2.731e-010  2.035e-010    -9.564    -9.691    -0.128
Mn(3)           8.865e-025
   Mn+3                  8.865e-025  6.298e-026   -24.052   -25.201    -1.148
Na              9.542e-003
   Na+                   8.879e-003  6.589e-003    -2.052    -2.181    -0.129
   NaSO4-                6.630e-004  4.942e-004    -3.179    -3.306    -0.128
   NaHCO3                4.322e-009  4.533e-009    -8.364    -8.344     0.021
   NaOH                  1.606e-011  1.684e-011   -10.794   -10.774     0.021
   NaCO3-                3.663e-012  2.730e-012   -11.436   -11.564    -0.128
O(0)            0.000e+000
   O2                    0.000e+000  0.000e+000   -51.056   -51.036     0.021
S(-2)           0.000e+000
   H2S                   0.000e+000  0.000e+000   -42.520   -42.499     0.021
   HS-                   0.000e+000  0.000e+000   -43.700   -43.852    -0.152
   S-2                   0.000e+000  0.000e+000   -50.651   -51.182    -0.530
   Fe(HS)2               0.000e+000  0.000e+000   -80.800   -80.779     0.021
   Fe(HS)3-              0.000e+000  0.000e+000  -122.467  -122.594    -0.128
S(6)            9.408e-002
   SO4-2                 5.173e-002  1.496e-002    -1.286    -1.825    -0.539
   FeSO4                 2.398e-002  2.515e-002    -1.620    -1.599     0.021
   MgSO4                 8.544e-003  8.961e-003    -2.068    -2.048     0.021
   CaSO4                 5.021e-003  5.266e-003    -2.299    -2.279     0.021
   MnSO4                 3.472e-003  3.641e-003    -2.459    -2.439     0.021
   NaSO4-                6.630e-004  4.942e-004    -3.179    -3.306    -0.128
   ZnSO4                 2.674e-004  2.804e-004    -3.573    -3.552     0.021
   Zn(SO4)2-2            1.105e-004  3.411e-005    -3.957    -4.467    -0.510
   AlSO4+                6.920e-005  5.158e-005    -4.160    -4.288    -0.128
   Al(SO4)2-             3.274e-005  2.441e-005    -4.485    -4.612    -0.128
   KSO4-                 1.847e-005  1.377e-005    -4.734    -4.861    -0.128
   CuSO4                 1.766e-005  1.852e-005    -4.753    -4.732     0.021
   HSO4-                 5.032e-006  3.751e-006    -5.298    -5.426    -0.128
   FeHSO4+               5.717e-007  4.262e-007    -6.243    -6.370    -0.128
   CaHSO4+               1.067e-007  7.953e-008    -6.972    -7.099    -0.128
   FeSO4+                2.959e-010  2.205e-010    -9.529    -9.657    -0.128
   Fe(SO4)2-             9.686e-011  7.220e-011   -10.014   -10.141    -0.128
   AlHSO4+2              3.820e-011  1.179e-011   -10.418   -10.928    -0.510
   FeHSO4+2              4.932e-015  1.523e-015   -14.307   -14.817    -0.510
Zn              6.510e-004
   Zn+2                  2.712e-004  7.994e-005    -3.567    -4.097    -0.530
   ZnSO4                 2.674e-004  2.804e-004    -3.573    -3.552     0.021
   Zn(SO4)2-2            1.105e-004  3.411e-005    -3.957    -4.467    -0.510
   ZnCl+                 1.940e-006  1.446e-006    -5.712    -5.840    -0.128
   ZnOH+                 4.549e-008  3.391e-008    -7.342    -7.470    -0.128
   ZnHCO3+               1.652e-008  1.231e-008    -7.782    -7.910    -0.128
   ZnCl2                 9.706e-009  1.018e-008    -8.013    -7.992     0.021
   ZnCO3                 3.384e-010  3.549e-010    -9.471    -9.450     0.021
   Zn(OH)2               1.436e-010  1.506e-010    -9.843    -9.822     0.021
   ZnCl3-                1.030e-010  7.677e-011    -9.987   -10.115    -0.128
   ZnCl4-2               8.377e-013  2.586e-013   -12.077   -12.587    -0.510
   Zn(CO3)2-2            5.470e-016  1.689e-016   -15.262   -15.772    -0.510
   Zn(OH)3-              2.471e-016  1.842e-016   -15.607   -15.735    -0.128
   Zn(OH)4-2             3.658e-023  1.129e-023   -22.437   -22.947    -0.510

------------------------------Saturation indices-------------------------------

	Phase               SI log IAP  log KT

	Al(OH)3(a)        0.00   10.80   10.80  Al(OH)3
	AlOHSO4           0.00   -2.20   -2.20  AlOHSO4
	Alunite           9.50    8.10   -1.40  KAl3(SO4)2(OH)6
	Anhydrite        -0.22   -4.58   -4.36  CaSO4
	Aragonite        -5.07  -13.41   -8.34  CaCO3
	Calcite          -4.93  -13.41   -8.48  CaCO3
	CH4(g)          -47.99  -50.85   -2.86  CH4
	CO2(g)           -3.68   -5.15   -1.47  CO2
	Dolomite         -9.56  -26.65  -17.09  CaMg(CO3)2
	Fe(OH)3           0.00    4.89    4.89  Fe(OH)3
	Fe(OH)3(a)        0.00    4.89    4.89  Fe(OH)3
	FeS(ppt)        -36.37  -40.29   -3.92  FeS
	Gibbsite          2.69   10.80    8.11  Al(OH)3
	Goethite          5.89    4.89   -1.00  FeOOH
	Gypsum            0.00   -4.58   -4.58  CaSO4:2H2O
	H2(g)           -17.52  -20.67   -3.15  H2
	H2O(g)           -1.51   -0.00    1.51  H2O
	H2S(g)          -41.50  -42.50   -1.00  H2S
	Halite           -5.94   -4.35    1.58  NaCl
	Hausmannite     -18.57   42.46   61.03  Mn3O4
	Hematite         13.79    9.79   -4.01  Fe2O3
	Jarosite-K       -0.41   -9.62   -9.21  KFe3(SO4)2(OH)6
	Mackinawite     -35.64  -40.29   -4.65  FeS
	Manganite        -8.27   17.07   25.34  MnOOH
	Melanterite      -1.65   -3.86   -2.21  FeSO4:7H2O
	MnO2            -15.55   25.83   41.38  MnO2
	O2(g)           -48.14  -51.04   -2.89  O2
	Pyrite          -53.73  -72.21  -18.48  FeS2
	Pyrochroite      -6.89    8.31   15.20  Mn(OH)2
	Pyrolusite      -15.55   25.83   41.38  MnO2
	Rhodochrosite    -2.39  -13.52  -11.13  MnCO3
	Siderite         -1.79  -12.68  -10.89  FeCO3
	Smithsonite      -4.75  -14.75  -10.00  ZnCO3
	Sphalerite      -30.74  -42.36  -11.62  ZnS
	Sulfur          -29.86  -24.98    4.88  S
	Zn(OH)2(e)       -4.42    7.08   11.50  Zn(OH)2


Cell 2.

Using solution 2.	Solution after simulation 1.
Using surface 2.	Surface assemblage after simulation 1.
Using pure phase assemblage 2.	Pure-phase assemblage after simulation 1.

-------------------------------Phase assemblage--------------------------------

                                                      Moles in assemblage
Phase                  SI log IAP  log KT      Initial       Final       Delta

Al(OH)3(a)           0.00   10.80   10.80   0.000e+000  1.921e-005  1.921e-005
AlOHSO4             -1.77   -3.97   -2.20   0.000e+000           0  0.000e+000
Calcite              0.00   -8.48   -8.48   1.022e-001  6.505e-002 -3.715e-002
Fe(OH)3              0.00    4.89    4.89   7.996e-001  8.200e-001  2.039e-002
Gypsum               0.00   -4.58   -4.58   4.121e-002  7.661e-002  3.540e-002
MnO2               -16.57   24.81   41.38   1.020e-002           0 -1.020e-002

------------------------------Surface composition------------------------------

Surf          
	 4.977e-002  Surface charge, eq
	 1.231e-001  sigma, C/m**2
	 8.581e-002  psi, V
	-3.340e+000  -F*psi/RT
	 3.544e-002  exp(-F*psi/RT)
	 6.000e+002  specific area, m**2/g
	 3.900e+004  m**2 for  6.500e+001 g


Surf          
	 1.500e-001  moles
	                                   Mole                     Log
	Species               Moles    Fraction    Molality    Molality

	SurfOH           8.514e-002       0.568  8.535e-002      -1.069
	SurfOMn+         3.478e-002       0.232  3.487e-002      -1.458
	SurfOH2+         2.201e-002       0.147  2.207e-002      -1.656
	SurfO-           7.545e-003       0.050  7.563e-003      -2.121
	SurfOZn+         4.721e-004       0.003  4.732e-004      -3.325
	SurfOCu+         4.694e-005       0.000  4.705e-005      -4.327

-----------------------------Solution composition------------------------------

	Elements           Molality       Moles

	Al               8.483e-006  8.462e-006
	C                3.725e-002  3.716e-002
	Ca               1.206e-002  1.203e-002
	Cl               9.663e-003  9.640e-003
	Cu               1.358e-007  1.355e-007
	Fe               3.289e-002  3.281e-002
	K                2.034e-004  2.029e-004
	Mg               1.607e-002  1.603e-002
	Mn               1.116e-002  1.114e-002
	Na               9.562e-003  9.538e-003
	S                6.522e-002  6.506e-002
	Zn               5.161e-005  5.148e-005

----------------------------Description of solution----------------------------

                                       pH  =   6.427      Charge balance
                                       pe  =   0.934      Adjusted to redox equilibrium
       Specific Conductance (uS/cm, 25 oC) = 7727
                          Density (g/cm3)  =   1.00735
                        Activity of water  =   0.997
                           Ionic strength  =  1.676e-001
                       Mass of water (kg)  =  9.975e-001
                 Total alkalinity (eq/kg)  =  2.797e-002
                       Total CO2 (mol/kg)  =  3.725e-002
                      Temperature (deg C)  =  25.000
                  Electrical balance (eq)  = -1.379e-002
 Percent error, 100*(Cat-|An|)/(Cat+|An|)  =  -7.24
                               Iterations  =   7
                                  Total H  = 1.107660e+002
                                  Total O  = 5.573153e+001

----------------------------Distribution of species----------------------------

                                                   Log       Log         Log 
   Species                 Molality    Activity  Molality  Activity     Gamma

   H+                    4.649e-007  3.741e-007    -6.333    -6.427    -0.094
   OH-                   3.699e-008  2.669e-008    -7.432    -7.574    -0.142
   H2O                   5.551e+001  9.974e-001     1.744    -0.001     0.000
Al              8.483e-006
   Al(OH)4-              4.820e-006  3.637e-006    -5.317    -5.439    -0.122
   Al(OH)2+              2.442e-006  1.843e-006    -5.612    -5.735    -0.122
   Al(OH)3               6.964e-007  7.238e-007    -6.157    -6.140     0.017
   AlOH+2                2.721e-007  8.819e-008    -6.565    -7.055    -0.489
   AlSO4+                1.666e-007  1.257e-007    -6.778    -6.901    -0.122
   Al(SO4)2-             6.287e-008  4.744e-008    -7.202    -7.324    -0.122
   Al+3                  2.354e-008  3.330e-009    -7.628    -8.478    -0.849
   AlHSO4+2              1.287e-014  4.170e-015   -13.891   -14.380    -0.489
C(-4)           3.100e-037
   CH4                   3.100e-037  3.222e-037   -36.509   -36.492     0.017
C(4)            3.725e-002
   HCO3-                 1.579e-002  1.195e-002    -1.802    -1.923    -0.121
   CO2                   9.699e-003  1.008e-002    -2.013    -1.996     0.017
   FeHCO3+               7.930e-003  5.984e-003    -2.101    -2.223    -0.122
   MnHCO3+               2.424e-003  1.829e-003    -2.615    -2.738    -0.122
   MgHCO3+               5.253e-004  3.963e-004    -3.280    -3.402    -0.122
   CaHCO3+               4.453e-004  3.372e-004    -3.351    -3.472    -0.121
   MnCO3                 1.966e-004  2.044e-004    -3.706    -3.690     0.017
   FeCO3                 1.731e-004  1.799e-004    -3.762    -3.745     0.017
   NaHCO3                4.375e-005  4.548e-005    -4.359    -4.342     0.017
   ZnHCO3+               1.141e-005  8.607e-006    -4.943    -5.065    -0.122
   CaCO3                 5.354e-006  5.565e-006    -5.271    -5.255     0.017
   CO3-2                 4.559e-006  1.498e-006    -5.341    -5.824    -0.483
   MgCO3                 3.898e-006  4.052e-006    -5.409    -5.392     0.017
   ZnCO3                 1.645e-006  1.710e-006    -5.784    -5.767     0.017
   NaCO3-                2.502e-007  1.888e-007    -6.602    -6.724    -0.122
   Zn(CO3)2-2            1.690e-007  5.478e-008    -6.772    -7.261    -0.489
Ca              1.206e-002
   Ca+2                  6.542e-003  2.211e-003    -2.184    -2.655    -0.471
   CaSO4                 5.065e-003  5.265e-003    -2.295    -2.279     0.017
   CaHCO3+               4.453e-004  3.372e-004    -3.351    -3.472    -0.121
   CaCO3                 5.354e-006  5.565e-006    -5.271    -5.255     0.017
   CaHSO4+               1.529e-008  1.154e-008    -7.815    -7.938    -0.122
   CaOH+                 1.296e-009  9.781e-010    -8.887    -9.010    -0.122
Cl              9.663e-003
   Cl-                   9.535e-003  6.919e-003    -2.021    -2.160    -0.139
   MnCl+                 6.415e-005  4.840e-005    -4.193    -4.315    -0.122
   FeCl+                 6.337e-005  4.781e-005    -4.198    -4.320    -0.122
   ZnCl+                 1.412e-007  1.065e-007    -6.850    -6.973    -0.122
   MnCl2                 1.406e-007  1.462e-007    -6.852    -6.835     0.017
   ZnCl2                 7.426e-010  7.718e-010    -9.129    -9.113     0.017
   MnCl3-                3.692e-010  2.786e-010    -9.433    -9.555    -0.122
   ZnCl3-                7.941e-012  5.992e-012   -11.100   -11.222    -0.122
   ZnCl4-2               6.411e-014  2.078e-014   -13.193   -13.682    -0.489
   FeCl+2                2.648e-015  8.581e-016   -14.577   -15.066    -0.489
   FeCl2+                3.515e-017  2.652e-017   -16.454   -16.576    -0.122
   FeCl3                 1.766e-020  1.835e-020   -19.753   -19.736     0.017
Cu(1)           1.279e-007
   Cu+                   1.279e-007  8.931e-008    -6.893    -7.049    -0.156
Cu(2)           7.922e-009
   Cu+2                  4.233e-009  1.462e-009    -8.373    -8.835    -0.462
   CuSO4                 3.427e-009  3.562e-009    -8.465    -8.448     0.017
   Cu(OH)2               2.088e-010  2.171e-010    -9.680    -9.663     0.017
   CuOH+                 5.325e-011  3.897e-011   -10.274   -10.409    -0.136
   Cu(OH)3-              4.621e-017  3.487e-017   -16.335   -16.458    -0.122
   Cu(OH)4-2             5.722e-023  1.855e-023   -22.242   -22.732    -0.489
Fe(2)           3.289e-002
   Fe+2                  1.449e-002  5.006e-003    -1.839    -2.301    -0.462
   FeSO4                 1.022e-002  1.062e-002    -1.990    -1.974     0.017
   FeHCO3+               7.930e-003  5.984e-003    -2.101    -2.223    -0.122
   FeCO3                 1.731e-004  1.799e-004    -3.762    -3.745     0.017
   FeCl+                 6.337e-005  4.781e-005    -4.198    -4.320    -0.122
   FeOH+                 5.593e-006  4.220e-006    -5.252    -5.375    -0.122
   FeHSO4+               3.463e-008  2.613e-008    -7.461    -7.583    -0.122
   Fe(HS)2               0.000e+000  0.000e+000   -60.534   -60.518     0.017
   Fe(HS)3-              0.000e+000  0.000e+000   -91.942   -92.064    -0.122
Fe(3)           1.036e-007
   Fe(OH)2+              8.270e-008  6.240e-008    -7.083    -7.205    -0.122
   Fe(OH)3               2.062e-008  2.143e-008    -7.686    -7.669     0.017
   FeOH+2                2.181e-010  7.069e-011    -9.661   -10.151    -0.489
   Fe(OH)4-              6.905e-011  5.210e-011   -10.161   -10.283    -0.122
   FeSO4+                7.123e-013  5.374e-013   -12.147   -12.270    -0.122
   Fe(SO4)2-             1.860e-013  1.403e-013   -12.731   -12.853    -0.122
   Fe+3                  2.902e-014  4.107e-015   -13.537   -14.387    -0.849
   FeCl+2                2.648e-015  8.581e-016   -14.577   -15.066    -0.489
   FeCl2+                3.515e-017  2.652e-017   -16.454   -16.576    -0.122
   Fe2(OH)2+4            1.219e-017  1.345e-019   -16.914   -18.871    -1.957
   FeHSO4+2              1.661e-018  5.384e-019   -17.780   -18.269    -0.489
   FeCl3                 1.766e-020  1.835e-020   -19.753   -19.736     0.017
   Fe3(OH)4+5            2.005e-021  1.753e-024   -20.698   -23.756    -3.058
H(0)            2.584e-018
   H2                    1.292e-018  1.343e-018   -17.889   -17.872     0.017
K               2.034e-004
   K+                    1.883e-004  1.366e-004    -3.725    -3.865    -0.139
   KSO4-                 1.518e-005  1.146e-005    -4.819    -4.941    -0.122
   KOH                   1.215e-012  1.263e-012   -11.915   -11.899     0.017
Mg              1.607e-002
   Mg+2                  7.914e-003  2.834e-003    -2.102    -2.548    -0.446
   MgSO4                 7.628e-003  7.929e-003    -2.118    -2.101     0.017
   MgHCO3+               5.253e-004  3.963e-004    -3.280    -3.402    -0.122
   MgCO3                 3.898e-006  4.052e-006    -5.409    -5.392     0.017
   MgOH+                 3.635e-008  2.743e-008    -7.439    -7.562    -0.122
Mn(2)           1.116e-002
   Mn+2                  4.971e-003  1.717e-003    -2.304    -2.765    -0.462
   MnSO4                 3.506e-003  3.644e-003    -2.455    -2.438     0.017
   MnHCO3+               2.424e-003  1.829e-003    -2.615    -2.738    -0.122
   MnCO3                 1.966e-004  2.044e-004    -3.706    -3.690     0.017
   MnCl+                 6.415e-005  4.840e-005    -4.193    -4.315    -0.122
   MnOH+                 1.559e-007  1.177e-007    -6.807    -6.929    -0.122
   MnCl2                 1.406e-007  1.462e-007    -6.852    -6.835     0.017
   MnCl3-                3.692e-010  2.786e-010    -9.433    -9.555    -0.122
Mn(3)           5.751e-027
   Mn+3                  5.751e-027  4.558e-028   -26.240   -27.341    -1.101
Na              9.562e-003
   Na+                   8.981e-003  6.766e-003    -2.047    -2.170    -0.123
   NaSO4-                5.364e-004  4.047e-004    -3.271    -3.393    -0.122
   NaHCO3                4.375e-005  4.548e-005    -4.359    -4.342     0.017
   NaCO3-                2.502e-007  1.888e-007    -6.602    -6.724    -0.122
   NaOH                  1.147e-010  1.192e-010    -9.941    -9.924     0.017
O(0)            0.000e+000
   O2                    0.000e+000  0.000e+000   -56.655   -56.638     0.017
S(-2)           1.183e-033
   H2S                   8.211e-034  8.534e-034   -33.086   -33.069     0.017
   HS-                   3.616e-034  2.609e-034   -33.442   -33.584    -0.142
   S-2                   2.656e-040  0.000e+000   -39.576   -40.075    -0.499
   Fe(HS)2               0.000e+000  0.000e+000   -60.534   -60.518     0.017
   Fe(HS)3-              0.000e+000  0.000e+000   -91.942   -92.064    -0.122
S(6)            6.522e-002
   SO4-2                 3.822e-002  1.193e-002    -1.418    -1.923    -0.506
   FeSO4                 1.022e-002  1.062e-002    -1.990    -1.974     0.017
   MgSO4                 7.628e-003  7.929e-003    -2.118    -2.101     0.017
   CaSO4                 5.065e-003  5.265e-003    -2.295    -2.279     0.017
   MnSO4                 3.506e-003  3.644e-003    -2.455    -2.438     0.017
   NaSO4-                5.364e-004  4.047e-004    -3.271    -3.393    -0.122
   ZnSO4                 1.540e-005  1.600e-005    -4.813    -4.796     0.017
   KSO4-                 1.518e-005  1.146e-005    -4.819    -4.941    -0.122
   Zn(SO4)2-2            4.790e-006  1.552e-006    -5.320    -5.809    -0.489
   HSO4-                 5.754e-007  4.341e-007    -6.240    -6.362    -0.122
   AlSO4+                1.666e-007  1.257e-007    -6.778    -6.901    -0.122
   Al(SO4)2-             6.287e-008  4.744e-008    -7.202    -7.324    -0.122
   FeHSO4+               3.463e-008  2.613e-008    -7.461    -7.583    -0.122
   CaHSO4+               1.529e-008  1.154e-008    -7.815    -7.938    -0.122
   CuSO4                 3.427e-009  3.562e-009    -8.465    -8.448     0.017
   FeSO4+                7.123e-013  5.374e-013   -12.147   -12.270    -0.122
   Fe(SO4)2-             1.860e-013  1.403e-013   -12.731   -12.853    -0.122
   AlHSO4+2              1.287e-014  4.170e-015   -13.891   -14.380    -0.489
   FeHSO4+2              1.661e-018  5.384e-019   -17.780   -18.269    -0.489
Zn              5.161e-005
   Zn+2                  1.804e-005  5.720e-006    -4.744    -5.243    -0.499
   ZnSO4                 1.540e-005  1.600e-005    -4.813    -4.796     0.017
   ZnHCO3+               1.141e-005  8.607e-006    -4.943    -5.065    -0.122
   Zn(SO4)2-2            4.790e-006  1.552e-006    -5.320    -5.809    -0.489
   ZnCO3                 1.645e-006  1.710e-006    -5.784    -5.767     0.017
   Zn(CO3)2-2            1.690e-007  5.478e-008    -6.772    -7.261    -0.489
   ZnCl+                 1.412e-007  1.065e-007    -6.850    -6.973    -0.122
   ZnOH+                 2.216e-008  1.672e-008    -7.654    -7.777    -0.122
   ZnCl2                 7.426e-010  7.718e-010    -9.129    -9.113     0.017
   Zn(OH)2               4.924e-010  5.117e-010    -9.308    -9.291     0.017
   ZnCl3-                7.941e-012  5.992e-012   -11.100   -11.222    -0.122
   ZnCl4-2               6.411e-014  2.078e-014   -13.193   -13.682    -0.489
   Zn(OH)3-              5.718e-015  4.314e-015   -14.243   -14.365    -0.122
   Zn(OH)4-2             5.624e-021  1.823e-021   -20.250   -20.739    -0.489

------------------------------Saturation indices-------------------------------

	Phase               SI log IAP  log KT

	Al(OH)3(a)        0.00   10.80   10.80  Al(OH)3
	AlOHSO4          -1.77   -3.97   -2.20  AlOHSO4
	Alunite           6.81    5.41   -1.40  KAl3(SO4)2(OH)6
	Anhydrite        -0.22   -4.58   -4.36  CaSO4
	Aragonite        -0.14   -8.48   -8.34  CaCO3
	Calcite           0.00   -8.48   -8.48  CaCO3
	CH4(g)          -33.63  -36.49   -2.86  CH4
	CO2(g)           -0.53   -2.00   -1.47  CO2
	Dolomite          0.24  -16.85  -17.09  CaMg(CO3)2
	Fe(OH)3           0.00    4.89    4.89  Fe(OH)3
	Fe(OH)3(a)        0.00    4.89    4.89  Fe(OH)3
	FeS(ppt)        -25.54  -29.46   -3.92  FeS
	Gibbsite          2.69   10.80    8.11  Al(OH)3
	Goethite          5.89    4.89   -1.00  FeOOH
	Gypsum            0.00   -4.58   -4.58  CaSO4:2H2O
	H2(g)           -14.72  -17.87   -3.15  H2
	H2O(g)           -1.51   -0.00    1.51  H2O
	H2S(g)          -32.07  -33.07   -1.00  H2S
	Halite           -5.91   -4.33    1.58  NaCl
	Hausmannite     -16.05   44.98   61.03  Mn3O4
	Hematite         13.79    9.79   -4.01  Fe2O3
	Jarosite-K       -3.11  -12.32   -9.21  KFe3(SO4)2(OH)6
	Mackinawite     -24.81  -29.46   -4.65  FeS
	Manganite        -7.89   17.45   25.34  MnOOH
	Melanterite      -2.02   -4.23   -2.21  FeSO4:7H2O
	MnO2            -16.57   24.81   41.38  MnO2
	O2(g)           -53.75  -56.64   -2.89  O2
	Pyrite          -36.27  -54.75  -18.48  FeS2
	Pyrochroite      -5.11   10.09   15.20  Mn(OH)2
	Pyrolusite      -16.57   24.81   41.38  MnO2
	Rhodochrosite     2.54   -8.59  -11.13  MnCO3
	Siderite          2.77   -8.12  -10.89  FeCO3
	Smithsonite      -1.07  -11.07  -10.00  ZnCO3
	Sphalerite      -20.78  -32.40  -11.62  ZnS
	Sulfur          -23.23  -18.35    4.88  S
	Zn(OH)2(e)       -3.89    7.61   11.50  Zn(OH)2


Cell 3.

Using solution 3.	Solution after simulation 1.
Using surface 3.	Surface assemblage after simulation 1.
Using pure phase assemblage 3.	Pure-phase assemblage after simulation 1.

-------------------------------Phase assemblage--------------------------------

                                                      Moles in assemblage
Phase                  SI log IAP  log KT      Initial       Final       Delta

Al(OH)3(a)          -0.10   10.70   10.80   8.960e-007           0 -8.960e-007
AlOHSO4             -1.31   -3.51   -2.20   0.000e+000           0  0.000e+000
Calcite              0.00   -8.48   -8.48   1.483e-001  1.460e-001 -2.280e-003
Fe(OH)3              0.00    4.89    4.89   7.300e-001  7.300e-001 -9.503e-009
Gypsum               0.00   -4.58   -4.58   0.000e+000  2.301e-003  2.301e-003
MnO2                 0.00   41.38   41.38   4.500e-002  4.500e-002 -2.899e-011

------------------------------Surface composition------------------------------

Surf          
	 5.137e-002  Surface charge, eq
	 1.271e-001  sigma, C/m**2
	 9.520e-002  psi, V
	-3.706e+000  -F*psi/RT
	 2.459e-002  exp(-F*psi/RT)
	 6.000e+002  specific area, m**2/g
	 3.900e+004  m**2 for  6.500e+001 g


Surf          
	 1.500e-001  moles
	                                   Mole                     Log
	Species               Moles    Fraction    Molality    Molality

	SurfOH           8.919e-002       0.595  8.956e-002      -1.048
	SurfOH2+         3.859e-002       0.257  3.875e-002      -1.412
	SurfOMn+         1.744e-002       0.116  1.751e-002      -1.757
	SurfO-           4.723e-003       0.031  4.743e-003      -2.324
	SurfOZn+         6.314e-005       0.000  6.340e-005      -4.198
	SurfOCu+         1.657e-007       0.000  1.664e-007      -6.779

-----------------------------Solution composition------------------------------

	Elements           Molality       Moles

	Al               9.422e-006  9.383e-006
	C                6.881e-002  6.852e-002
	Ca               1.548e-002  1.541e-002
	Cl               9.680e-003  9.640e-003
	Cu               7.182e-011  7.152e-011
	Fe               2.178e-007  2.168e-007
	K                2.038e-004  2.029e-004
	Mg               1.610e-002  1.603e-002
	Mn               1.773e-002  1.766e-002
	Na               9.578e-003  9.538e-003
	S                3.724e-002  3.709e-002
	Zn               2.064e-005  2.056e-005

----------------------------Description of solution----------------------------

                                       pH  =   6.045      Charge balance
                                       pe  =   9.874      Adjusted to redox equilibrium
       Specific Conductance (uS/cm, 25 oC) = 6107
                          Density (g/cm3)  =   1.00410
                        Activity of water  =   0.997
                           Ionic strength  =  1.211e-001
                       Mass of water (kg)  =  9.958e-001
                 Total alkalinity (eq/kg)  =  3.247e-002
                       Total CO2 (mol/kg)  =  6.881e-002
                      Temperature (deg C)  =  25.000
                  Electrical balance (eq)  = -8.133e-003
 Percent error, 100*(Cat-|An|)/(Cat+|An|)  =  -5.56
                               Iterations  =   4
                                  Total H  = 1.105812e+002
                                  Total O  = 5.559215e+001

----------------------------Distribution of species----------------------------

                                                   Log       Log         Log 
   Species                 Molality    Activity  Molality  Activity     Gamma

   H+                    1.104e-006  9.024e-007    -5.957    -6.045    -0.087
   OH-                   1.481e-008  1.107e-008    -7.829    -7.956    -0.127
   H2O                   5.551e+001  9.974e-001     1.744    -0.001     0.000
Al              9.422e-006
   Al(OH)2+              4.532e-006  3.494e-006    -5.344    -5.457    -0.113
   Al(OH)4-              1.538e-006  1.186e-006    -5.813    -5.926    -0.113
   AlSO4+                1.153e-006  8.889e-007    -5.938    -6.051    -0.113
   AlOH+2                1.142e-006  4.033e-007    -5.942    -6.394    -0.452
   Al(OH)3               5.534e-007  5.691e-007    -6.257    -6.245     0.012
   Al(SO4)2-             2.790e-007  2.151e-007    -6.554    -6.667    -0.113
   Al+3                  2.247e-007  3.673e-008    -6.648    -7.435    -0.786
   AlHSO4+2              2.014e-013  7.113e-014   -12.696   -13.148    -0.452
C(-4)           0.000e+000
   CH4                   0.000e+000  0.000e+000  -104.393  -104.381     0.012
C(4)            6.881e-002
   CO2                   3.657e-002  3.761e-002    -1.437    -1.425     0.012
   HCO3-                 2.380e-002  1.849e-002    -1.623    -1.733    -0.110
   MnHCO3+               6.106e-003  4.708e-003    -2.214    -2.327    -0.113
   CaHCO3+               1.047e-003  8.132e-004    -2.980    -3.090    -0.110
   MgHCO3+               9.814e-004  7.566e-004    -3.008    -3.121    -0.113
   MnCO3                 2.121e-004  2.181e-004    -3.674    -3.661     0.012
   NaHCO3                7.143e-005  7.345e-005    -4.146    -4.134     0.012
   ZnHCO3+               7.665e-006  5.909e-006    -5.115    -5.228    -0.113
   CaCO3                 5.412e-006  5.565e-006    -5.267    -5.255     0.012
   MgCO3                 3.118e-006  3.207e-006    -5.506    -5.494     0.012
   CO3-2                 2.637e-006  9.608e-007    -5.579    -6.017    -0.438
   ZnCO3                 4.733e-007  4.867e-007    -6.325    -6.313     0.012
   NaCO3-                1.640e-007  1.264e-007    -6.785    -6.898    -0.113
   Zn(CO3)2-2            2.831e-008  9.999e-009    -7.548    -8.000    -0.452
   FeHCO3+               1.934e-010  1.491e-010    -9.714    -9.827    -0.113
   FeCO3                 1.808e-012  1.859e-012   -11.743   -11.731     0.012
Ca              1.548e-002
   Ca+2                  9.306e-003  3.448e-003    -2.031    -2.462    -0.431
   CaSO4                 5.119e-003  5.264e-003    -2.291    -2.279     0.012
   CaHCO3+               1.047e-003  8.132e-004    -2.980    -3.090    -0.110
   CaCO3                 5.412e-006  5.565e-006    -5.267    -5.255     0.012
   CaHSO4+               3.610e-008  2.783e-008    -7.443    -7.556    -0.113
   CaOH+                 8.203e-010  6.324e-010    -9.086    -9.199    -0.113
Cl              9.680e-003
   Cl-                   9.571e-003  7.181e-003    -2.019    -2.144    -0.125
   MnCl+                 1.084e-004  8.357e-005    -3.965    -4.078    -0.113
   MnCl2                 2.547e-007  2.620e-007    -6.594    -6.582     0.012
   ZnCl+                 6.365e-008  4.907e-008    -7.196    -7.309    -0.113
   MnCl3-                6.720e-010  5.181e-010    -9.173    -9.286    -0.113
   ZnCl2                 3.588e-010  3.689e-010    -9.445    -9.433     0.012
   ZnCl3-                3.856e-012  2.972e-012   -11.414   -11.527    -0.113
   FeCl+                 1.037e-012  7.993e-013   -11.984   -12.097    -0.113
   FeCl+2                3.537e-014  1.249e-014   -13.451   -13.903    -0.452
   ZnCl4-2               3.028e-014  1.070e-014   -13.519   -13.971    -0.452
   FeCl2+                5.198e-016  4.007e-016   -15.284   -15.397    -0.113
   FeCl3                 2.798e-019  2.877e-019   -18.553   -18.541     0.012
Cu(1)           1.651e-018
   Cu+                   1.651e-018  1.202e-018   -17.782   -17.920    -0.138
Cu(2)           7.182e-011
   Cu+2                  4.512e-011  1.713e-011   -10.346   -10.766    -0.421
   CuSO4                 2.603e-011  2.676e-011   -10.585   -10.572     0.012
   Cu(OH)2               4.252e-013  4.372e-013   -12.371   -12.359     0.012
   CuOH+                 2.505e-013  1.893e-013   -12.601   -12.723    -0.122
   Cu(OH)3-              3.777e-020  2.912e-020   -19.423   -19.536    -0.113
   Cu(OH)4-2             1.818e-026  6.422e-027   -25.740   -26.192    -0.452
Fe(2)           5.154e-010
   Fe+2                  2.124e-010  8.064e-011    -9.673   -10.093    -0.421
   FeHCO3+               1.934e-010  1.491e-010    -9.714    -9.827    -0.113
   FeSO4                 1.067e-010  1.097e-010    -9.972    -9.960     0.012
   FeCO3                 1.808e-012  1.859e-012   -11.743   -11.731     0.012
   FeCl+                 1.037e-012  7.993e-013   -11.984   -12.097    -0.113
   FeOH+                 3.656e-014  2.819e-014   -13.437   -13.550    -0.113
   FeHSO4+               8.444e-016  6.509e-016   -15.073   -15.186    -0.113
   Fe(HS)2               0.000e+000  0.000e+000  -204.865  -204.853     0.012
   Fe(HS)3-              0.000e+000  0.000e+000  -304.558  -304.671    -0.113
Fe(3)           2.172e-007
   Fe(OH)2+              1.952e-007  1.505e-007    -6.710    -6.822    -0.113
   Fe(OH)3               2.084e-008  2.143e-008    -7.681    -7.669     0.012
   FeOH+2                1.164e-009  4.112e-010    -8.934    -9.386    -0.452
   Fe(OH)4-              2.802e-011  2.160e-011   -10.553   -10.666    -0.113
   FeSO4+                6.270e-012  4.834e-012   -11.203   -11.316    -0.113
   Fe(SO4)2-             1.050e-012  8.093e-013   -11.979   -12.092    -0.113
   Fe+3                  3.524e-013  5.761e-014   -12.453   -13.239    -0.786
   FeCl+2                3.537e-014  1.249e-014   -13.451   -13.903    -0.452
   FeCl2+                5.198e-016  4.007e-016   -15.284   -15.397    -0.113
   Fe2(OH)2+4            2.923e-016  4.550e-018   -15.534   -17.342    -1.808
   FeHSO4+2              3.307e-017  1.168e-017   -16.481   -16.933    -0.452
   FeCl3                 2.798e-019  2.877e-019   -18.553   -18.541     0.012
   Fe3(OH)4+5            9.553e-020  1.431e-022   -19.020   -21.844    -2.825
H(0)            2.004e-035
   H2                    1.002e-035  1.030e-035   -34.999   -34.987     0.012
K               2.038e-004
   K+                    1.937e-004  1.453e-004    -3.713    -3.838    -0.125
   KSO4-                 1.013e-005  7.812e-006    -4.994    -5.107    -0.113
   KOH                   5.415e-013  5.568e-013   -12.266   -12.254     0.012
Mg              1.610e-002
   Mg+2                  9.014e-003  3.497e-003    -2.045    -2.456    -0.411
   MgSO4                 6.101e-003  6.274e-003    -2.215    -2.202     0.012
   MgHCO3+               9.814e-004  7.566e-004    -3.008    -3.121    -0.113
   MgCO3                 3.118e-006  3.207e-006    -5.506    -5.494     0.012
   MgOH+                 1.821e-008  1.404e-008    -7.740    -7.853    -0.113
Mn(2)           1.773e-002
   Mn+2                  7.526e-003  2.857e-003    -2.123    -2.544    -0.421
   MnHCO3+               6.106e-003  4.708e-003    -2.214    -2.327    -0.113
   MnSO4                 3.781e-003  3.888e-003    -2.422    -2.410     0.012
   MnCO3                 2.121e-004  2.181e-004    -3.674    -3.661     0.012
   MnCl+                 1.084e-004  8.357e-005    -3.965    -4.078    -0.113
   MnCl2                 2.547e-007  2.620e-007    -6.594    -6.582     0.012
   MnOH+                 1.053e-007  8.117e-008    -6.978    -7.091    -0.113
   MnCl3-                6.720e-010  5.181e-010    -9.173    -9.286    -0.113
Mn(3)           6.866e-018
   Mn+3                  6.866e-018  6.605e-019   -17.163   -18.180    -1.017
Na              9.578e-003
   Na+                   9.155e-003  7.065e-003    -2.038    -2.151    -0.113
   NaSO4-                3.515e-004  2.710e-004    -3.454    -3.567    -0.113
   NaHCO3                7.143e-005  7.345e-005    -4.146    -4.134     0.012
   NaCO3-                1.640e-007  1.264e-007    -6.785    -6.898    -0.113
   NaOH                  5.017e-011  5.159e-011   -10.300   -10.287     0.012
O(0)            7.601e-023
   O2                    3.801e-023  3.908e-023   -22.420   -22.408     0.012
S(-2)           0.000e+000
   H2S                   0.000e+000  0.000e+000  -100.970  -100.958     0.012
   HS-                   0.000e+000  0.000e+000  -101.728  -101.855    -0.127
   S-2                   0.000e+000  0.000e+000  -108.277  -108.728    -0.451
   Fe(HS)2               0.000e+000  0.000e+000  -204.865  -204.853     0.012
   Fe(HS)3-              0.000e+000  0.000e+000  -304.558  -304.671    -0.113
S(6)            3.724e-002
   SO4-2                 2.187e-002  7.652e-003    -1.660    -2.116    -0.456
   MgSO4                 6.101e-003  6.274e-003    -2.215    -2.202     0.012
   CaSO4                 5.119e-003  5.264e-003    -2.291    -2.279     0.012
   MnSO4                 3.781e-003  3.888e-003    -2.422    -2.410     0.012
   NaSO4-                3.515e-004  2.710e-004    -3.454    -3.567    -0.113
   KSO4-                 1.013e-005  7.812e-006    -4.994    -5.107    -0.113
   ZnSO4                 4.429e-006  4.554e-006    -5.354    -5.342     0.012
   AlSO4+                1.153e-006  8.889e-007    -5.938    -6.051    -0.113
   HSO4-                 8.709e-007  6.714e-007    -6.060    -6.173    -0.113
   Zn(SO4)2-2            8.020e-007  2.833e-007    -6.096    -6.548    -0.452
   Al(SO4)2-             2.790e-007  2.151e-007    -6.554    -6.667    -0.113
   CaHSO4+               3.610e-008  2.783e-008    -7.443    -7.556    -0.113
   FeSO4                 1.067e-010  1.097e-010    -9.972    -9.960     0.012
   CuSO4                 2.603e-011  2.676e-011   -10.585   -10.572     0.012
   FeSO4+                6.270e-012  4.834e-012   -11.203   -11.316    -0.113
   Fe(SO4)2-             1.050e-012  8.093e-013   -11.979   -12.092    -0.113
   AlHSO4+2              2.014e-013  7.113e-014   -12.696   -13.148    -0.452
   FeHSO4+               8.444e-016  6.509e-016   -15.073   -15.186    -0.113
   FeHSO4+2              3.307e-017  1.168e-017   -16.481   -16.933    -0.452
Zn              2.064e-005
   ZnHCO3+               7.665e-006  5.909e-006    -5.115    -5.228    -0.113
   Zn+2                  7.176e-006  2.539e-006    -5.144    -5.595    -0.451
   ZnSO4                 4.429e-006  4.554e-006    -5.354    -5.342     0.012
   Zn(SO4)2-2            8.020e-007  2.833e-007    -6.096    -6.548    -0.452
   ZnCO3                 4.733e-007  4.867e-007    -6.325    -6.313     0.012
   ZnCl+                 6.365e-008  4.907e-008    -7.196    -7.309    -0.113
   Zn(CO3)2-2            2.831e-008  9.999e-009    -7.548    -8.000    -0.452
   ZnOH+                 3.991e-009  3.077e-009    -8.399    -8.512    -0.113
   ZnCl2                 3.588e-010  3.689e-010    -9.445    -9.433     0.012
   Zn(OH)2               3.798e-011  3.905e-011   -10.420   -10.408     0.012
   ZnCl3-                3.856e-012  2.972e-012   -11.414   -11.527    -0.113
   ZnCl4-2               3.028e-014  1.070e-014   -13.519   -13.971    -0.452
   Zn(OH)3-              1.771e-016  1.365e-016   -15.752   -15.865    -0.113
   Zn(OH)4-2             6.770e-023  2.391e-023   -22.169   -22.621    -0.452

------------------------------Saturation indices-------------------------------

	Phase               SI log IAP  log KT

	Al(OH)3(a)       -0.10   10.70   10.80  Al(OH)3
	AlOHSO4          -1.31   -3.51   -2.20  AlOHSO4
	Alunite           7.29    5.89   -1.40  KAl3(SO4)2(OH)6
[...]
   Zn(SO4)2-2            8.086e-007  2.543e-007    -6.092    -6.595    -0.502
   ZnHCO3+               3.174e-007  2.377e-007    -6.498    -6.624    -0.126
   ZnCO3                 2.299e-007  2.401e-007    -6.639    -6.620     0.019
   Zn(CO3)2-2            2.854e-008  8.975e-009    -7.545    -8.047    -0.502
   ZnCl+                 1.687e-008  1.263e-008    -7.773    -7.899    -0.126
   ZnOH+                 1.367e-008  1.024e-008    -7.864    -7.990    -0.126
   Zn(OH)2               1.525e-009  1.594e-009    -8.817    -8.798     0.019
   ZnCl2                 8.631e-011  9.017e-011   -10.064   -10.045     0.019
   ZnCl3-                9.210e-013  6.897e-013   -12.036   -12.161    -0.126
   Zn(OH)3-              9.125e-014  6.833e-014   -13.040   -13.165    -0.126
   ZnCl4-2               7.492e-015  2.356e-015   -14.125   -14.628    -0.502
   Zn(OH)4-2             4.669e-019  1.468e-019   -18.331   -18.833    -0.502

------------------------------Saturation indices-------------------------------

	Phase               SI log IAP  log KT

	Al(OH)3(a)        0.00   10.80   10.80  Al(OH)3
	AlOHSO4          -3.12   -5.32   -2.20  AlOHSO4
	Alunite           4.81    3.41   -1.40  KAl3(SO4)2(OH)6
	Anhydrite        -0.22   -4.58   -4.36  CaSO4
	Aragonite        -0.14   -8.48   -8.34  CaCO3
	Calcite           0.00   -8.48   -8.48  CaCO3
	CH4(g)          -21.58  -24.44   -2.86  CH4
	CO2(g)           -1.87   -3.34   -1.47  CO2
	Dolomite          0.28  -16.81  -17.09  CaMg(CO3)2
	Fe(OH)3           0.00    4.89    4.89  Fe(OH)3
	Fe(OH)3(a)        0.00    4.89    4.89  Fe(OH)3
	FeS(ppt)        -11.81  -15.73   -3.92  FeS
	Gibbsite          2.69   10.80    8.11  Al(OH)3
	Goethite          5.89    4.89   -1.00  FeOOH
	Gypsum            0.00   -4.58   -4.58  CaSO4:2H2O
	H2(g)           -11.37  -14.52   -3.15  H2
	H2O(g)           -1.51   -0.00    1.51  H2O
	H2S(g)          -20.02  -21.01   -1.00  H2S
	Halite           -5.93   -4.34    1.58  NaCl
	Hausmannite     -17.76   43.27   61.03  Mn3O4
	Hematite         13.79    9.79   -4.01  Fe2O3
	Jarosite-K       -5.10  -14.31   -9.21  KFe3(SO4)2(OH)6
	Mackinawite     -11.08  -15.73   -4.65  FeS
	Manganite        -9.02   16.32   25.34  MnOOH
	Melanterite      -1.69   -3.90   -2.21  FeSO4:7H2O
	MnO2            -19.37   22.01   41.38  MnO2
	O2(g)           -60.45  -63.34   -2.89  O2
	Pyrite          -13.83  -32.31  -18.48  FeS2
	Pyrochroite      -4.57   10.63   15.20  Mn(OH)2
	Pyrolusite      -19.37   22.01   41.38  MnO2
	Rhodochrosite     1.74   -9.39  -11.13  MnCO3
	Siderite          3.09   -7.80  -10.89  FeCO3
	Smithsonite      -1.92  -11.92  -10.00  ZnCO3
	Sphalerite       -8.23  -19.85  -11.62  ZnS
	Sulfur          -14.52   -9.64    4.88  S
	Zn(OH)2(e)       -3.40    8.10   11.50  Zn(OH)2


Cell 5.

Using solution 5.	Solution after simulation 1.
Using surface 5.	Surface assemblage after simulation 1.
Using pure phase assemblage 5.	Pure-phase assemblage after simulation 1.

-------------------------------Phase assemblage--------------------------------

                                                      Moles in assemblage
Phase                  SI log IAP  log KT      Initial       Final       Delta

Al(OH)3(a)          -0.00   10.80   10.80   4.448e-005  4.588e-005  1.395e-006
AlOHSO4             -2.81   -5.01   -2.20   0.000e+000           0  0.000e+000
Calcite              0.00   -8.48   -8.48   5.891e-002  5.812e-002 -7.892e-004
Fe(OH)3              0.00    4.89    4.89   8.198e-001  8.198e-001 -5.735e-005
Gypsum               0.00   -4.58   -4.58   7.948e-002  8.024e-002  7.643e-004
MnO2               -19.19   22.19   41.38   0.000e+000           0  0.000e+000

------------------------------Surface composition------------------------------

Surf          
	 3.318e-002  Surface charge, eq
	 8.209e-002  sigma, C/m**2
	 6.424e-002  psi, V
	-2.500e+000  -F*psi/RT
	 8.206e-002  exp(-F*psi/RT)
	 6.000e+002  specific area, m**2/g
	 3.900e+004  m**2 for  6.500e+001 g


Surf          
	 1.500e-001  moles
	                                   Mole                     Log
	Species               Moles    Fraction    Molality    Molality

	SurfOH           9.165e-002       0.611  9.172e-002      -1.038
	SurfOMn+         3.022e-002       0.201  3.025e-002      -1.519
	SurfOH2+         1.529e-002       0.102  1.530e-002      -1.815
	SurfO-           1.259e-002       0.084  1.260e-002      -1.900
	SurfOCu+         2.238e-004       0.001  2.240e-004      -3.650
	SurfOZn+         2.977e-005       0.000  2.980e-005      -4.526

-----------------------------Solution composition------------------------------

	Elements           Molality       Moles

	Al               1.883e-005  1.882e-005
	C                1.158e-002  1.157e-002
	Ca               1.091e-002  1.091e-002
	Cl               9.647e-003  9.640e-003
	Cu               5.704e-006  5.700e-006
	Fe               5.324e-002  5.320e-002
	K                2.031e-004  2.029e-004
	Mg               1.604e-002  1.603e-002
	Mn               1.008e-003  1.007e-003
	Na               9.545e-003  9.538e-003
	S                8.295e-002  8.288e-002
	Zn               3.525e-007  3.522e-007

----------------------------Description of solution----------------------------

                                       pH  =   6.982      Charge balance
                                       pe  =  -0.980      Adjusted to redox equilibrium
       Specific Conductance (uS/cm, 25 oC) = 8528
                          Density (g/cm3)  =   1.00862
                        Activity of water  =   0.997
                           Ionic strength  =  1.905e-001
                       Mass of water (kg)  =  9.992e-001
                 Total alkalinity (eq/kg)  =  1.120e-002
                       Total CO2 (mol/kg)  =  1.158e-002
                      Temperature (deg C)  =  25.000
                  Electrical balance (eq)  = -1.451e-002
 Percent error, 100*(Cat-|An|)/(Cat+|An|)  =  -7.07
                               Iterations  =   3
                                  Total H  = 1.109376e+002
                                  Total O  = 5.582907e+001

----------------------------Distribution of species----------------------------

                                                   Log       Log         Log 
   Species                 Molality    Activity  Molality  Activity     Gamma

   OH-                   1.347e-007  9.577e-008    -6.871    -7.019    -0.148
   H+                    1.304e-007  1.043e-007    -6.885    -6.982    -0.097
   H2O                   5.551e+001  9.974e-001     1.744    -0.001     0.000
Al              1.883e-005
   Al(OH)4-              1.743e-005  1.305e-005    -4.759    -4.884    -0.126
   Al(OH)3               6.927e-007  7.238e-007    -6.159    -6.140     0.019
   Al(OH)2+              6.858e-007  5.135e-007    -6.164    -6.289    -0.126
   AlOH+2                2.179e-008  6.849e-009    -7.662    -8.164    -0.503
   AlSO4+                4.286e-009  3.210e-009    -8.368    -8.494    -0.126
   Al(SO4)2-             1.909e-009  1.429e-009    -8.719    -8.845    -0.126
   Al+3                  5.389e-010  7.207e-011    -9.268   -10.142    -0.874
   AlHSO4+2              9.438e-017  2.967e-017   -16.025   -16.528    -0.503
C(-4)           2.122e-027
   CH4                   2.122e-027  2.217e-027   -26.673   -26.654     0.019
C(4)            1.158e-002
   HCO3-                 5.245e-003  3.931e-003    -2.280    -2.406    -0.125
   FeHCO3+               4.669e-003  3.496e-003    -2.331    -2.456    -0.126
   CO2                   8.842e-004  9.238e-004    -3.053    -3.034     0.019
   FeCO3                 3.610e-004  3.772e-004    -3.442    -3.423     0.019
   MgHCO3+               1.615e-004  1.209e-004    -3.792    -3.917    -0.126
   CaHCO3+               1.254e-004  9.396e-005    -3.902    -4.027    -0.125
   MnHCO3+               7.804e-005  5.843e-005    -4.108    -4.233    -0.126
   MnCO3                 2.242e-005  2.343e-005    -4.649    -4.630     0.019
   NaHCO3                1.406e-005  1.469e-005    -4.852    -4.833     0.019
   CO3-2                 5.607e-006  1.768e-006    -5.251    -5.753    -0.501
   CaCO3                 5.326e-006  5.565e-006    -5.274    -5.255     0.019
   MgCO3                 4.246e-006  4.437e-006    -5.372    -5.353     0.019
   NaCO3-                2.922e-007  2.188e-007    -6.534    -6.660    -0.126
   ZnHCO3+               2.666e-008  1.996e-008    -7.574    -7.700    -0.126
   ZnCO3                 1.362e-008  1.423e-008    -7.866    -7.847     0.019
   Zn(CO3)2-2            1.711e-009  5.379e-010    -8.767    -9.269    -0.503
Ca              1.091e-002
   Ca+2                  5.744e-003  1.874e-003    -2.241    -2.727    -0.487
   CaSO4                 5.039e-003  5.265e-003    -2.298    -2.279     0.019
   CaHCO3+               1.254e-004  9.396e-005    -3.902    -4.027    -0.125
   CaCO3                 5.326e-006  5.565e-006    -5.274    -5.255     0.019
   CaHSO4+               4.294e-009  3.216e-009    -8.367    -8.493    -0.126
   CaOH+                 3.973e-009  2.975e-009    -8.401    -8.527    -0.126
Cl              9.647e-003
   Cl-                   9.529e-003  6.821e-003    -2.021    -2.166    -0.145
   FeCl+                 1.118e-004  8.375e-005    -3.951    -4.077    -0.126
   MnCl+                 6.190e-006  4.635e-006    -5.208    -5.334    -0.126
   MnCl2                 1.321e-008  1.380e-008    -7.879    -7.860     0.019
   ZnCl+                 9.890e-010  7.406e-010    -9.005    -9.130    -0.126
   MnCl3-                3.463e-011  2.593e-011   -10.461   -10.586    -0.126
   ZnCl2                 5.063e-012  5.290e-012   -11.296   -11.277     0.019
   ZnCl3-                5.407e-014  4.049e-014   -13.267   -13.393    -0.126
   ZnCl4-2               4.403e-016  1.384e-016   -15.356   -15.859    -0.503
   FeCl+2                5.824e-017  1.831e-017   -16.235   -16.737    -0.503
   FeCl2+                7.450e-019  5.578e-019   -18.128   -18.253    -0.126
   FeCl3                 3.642e-022  3.805e-022   -21.439   -21.420     0.019
Cu(1)           5.698e-006
   Cu+                   5.698e-006  3.909e-006    -5.244    -5.408    -0.164
Cu(2)           6.018e-009
   Cu+2                  2.343e-009  7.794e-010    -8.630    -9.108    -0.478
   CuSO4                 2.145e-009  2.241e-009    -8.669    -8.650     0.019
   Cu(OH)2               1.426e-009  1.490e-009    -8.846    -8.827     0.019
   CuOH+                 1.032e-010  7.456e-011    -9.986   -10.127    -0.141
   Cu(OH)3-              1.147e-015  8.590e-016   -14.940   -15.066    -0.126
   Cu(OH)4-2             5.215e-021  1.640e-021   -20.283   -20.785    -0.503
Fe(2)           5.324e-002
   Fe+2                  2.674e-002  8.894e-003    -1.573    -2.051    -0.478
   FeSO4                 2.132e-002  2.227e-002    -1.671    -1.652     0.019
   FeHCO3+               4.669e-003  3.496e-003    -2.331    -2.456    -0.126
   FeCO3                 3.610e-004  3.772e-004    -3.442    -3.423     0.019
   FeCl+                 1.118e-004  8.375e-005    -3.951    -4.077    -0.126
   FeOH+                 3.593e-005  2.691e-005    -4.445    -4.570    -0.126
   FeHSO4+               2.039e-008  1.526e-008    -7.691    -7.816    -0.126
   Fe(HS)2               3.148e-040  3.289e-040   -39.502   -39.483     0.019
   Fe(HS)3-              0.000e+000  0.000e+000   -60.511   -60.637    -0.126
Fe(3)           4.400e-008
   Fe(OH)2+              2.322e-008  1.739e-008    -7.634    -7.760    -0.126
   Fe(OH)3               2.051e-008  2.143e-008    -7.688    -7.669     0.019
   Fe(OH)4-              2.497e-010  1.870e-010    -9.603    -9.728    -0.126
   FeOH+2                1.746e-011  5.489e-012   -10.758   -11.260    -0.503
   FeSO4+                1.833e-014  1.372e-014   -13.737   -13.863    -0.126
   Fe(SO4)2-             5.646e-015  4.228e-015   -14.248   -14.374    -0.126
   Fe+3                  6.645e-016  8.887e-017   -15.177   -16.051    -0.874
   FeCl+2                5.824e-017  1.831e-017   -16.235   -16.737    -0.503
   FeCl2+                7.450e-019  5.578e-019   -18.128   -18.253    -0.126
   Fe2(OH)2+4            8.303e-020  8.110e-022   -19.081   -21.091    -2.010
   FeHSO4+2              1.219e-020  3.831e-021   -19.914   -20.417    -0.503
   FeCl3                 3.642e-022  3.805e-022   -21.439   -21.420     0.019
   Fe3(OH)4+5            4.076e-024  2.946e-027   -23.390   -26.531    -3.141
H(0)            1.346e-015
   H2                    6.728e-016  7.029e-016   -15.172   -15.153     0.019
K               2.031e-004
   K+                    1.855e-004  1.328e-004    -3.732    -3.877    -0.145
   KSO4-                 1.755e-005  1.314e-005    -4.756    -4.881    -0.126
   KOH                   4.217e-012  4.406e-012   -11.375   -11.356     0.019
Mg              1.604e-002
   MgSO4                 8.309e-003  8.682e-003    -2.080    -2.061     0.019
   Mg+2                  7.570e-003  2.630e-003    -2.121    -2.580    -0.459
   MgHCO3+               1.615e-004  1.209e-004    -3.792    -3.917    -0.126
   MgCO3                 4.246e-006  4.437e-006    -5.372    -5.353     0.019
   MgOH+                 1.220e-007  9.134e-008    -6.914    -7.039    -0.126
Mn(2)           1.008e-003
   Mn+2                  5.015e-004  1.668e-004    -3.300    -3.778    -0.478
   MnSO4                 3.998e-004  4.177e-004    -3.398    -3.379     0.019
   MnHCO3+               7.804e-005  5.843e-005    -4.108    -4.233    -0.126
   MnCO3                 2.242e-005  2.343e-005    -4.649    -4.630     0.019
   MnCl+                 6.190e-006  4.635e-006    -5.208    -5.334    -0.126
   MnOH+                 5.478e-008  4.102e-008    -7.261    -7.387    -0.126
   MnCl2                 1.321e-008  1.380e-008    -7.879    -7.860     0.019
   MnCl3-                3.463e-011  2.593e-011   -10.461   -10.586    -0.126
Mn(3)           7.288e-030
   Mn+3                  7.288e-030  5.394e-031   -29.137   -30.268    -1.131
Na              9.545e-003
   Na+                   8.905e-003  6.647e-003    -2.050    -2.177    -0.127
   NaSO4-                6.265e-004  4.691e-004    -3.203    -3.329    -0.126
   NaHCO3                1.406e-005  1.469e-005    -4.852    -4.833     0.019
   NaCO3-                2.922e-007  2.188e-007    -6.534    -6.660    -0.126
   NaOH                  4.021e-010  4.201e-010    -9.396    -9.377     0.019
O(0)            0.000e+000
   O2                    0.000e+000  0.000e+000   -62.095   -62.076     0.019
S(-2)           1.468e-023
   HS-                   9.057e-024  6.441e-024   -23.043   -23.191    -0.148
   H2S                   5.620e-024  5.872e-024   -23.250   -23.231     0.019
   S-2                   2.459e-029  7.462e-030   -28.609   -29.127    -0.518
   Fe(HS)2               3.148e-040  3.289e-040   -39.502   -39.483     0.019
   Fe(HS)3-              0.000e+000  0.000e+000   -60.511   -60.637    -0.126
S(6)            8.295e-002
   SO4-2                 4.724e-002  1.408e-002    -1.326    -1.851    -0.526
   FeSO4                 2.132e-002  2.227e-002    -1.671    -1.652     0.019
   MgSO4                 8.309e-003  8.682e-003    -2.080    -2.061     0.019
   CaSO4                 5.039e-003  5.265e-003    -2.298    -2.279     0.019
   NaSO4-                6.265e-004  4.691e-004    -3.203    -3.329    -0.126
   MnSO4                 3.998e-004  4.177e-004    -3.398    -3.379     0.019
   KSO4-                 1.755e-005  1.314e-005    -4.756    -4.881    -0.126
   HSO4-                 1.906e-007  1.427e-007    -6.720    -6.845    -0.126
   ZnSO4                 1.274e-007  1.332e-007    -6.895    -6.876     0.019
   Zn(SO4)2-2            4.848e-008  1.524e-008    -7.314    -7.817    -0.503
   FeHSO4+               2.039e-008  1.526e-008    -7.691    -7.816    -0.126
   CaHSO4+               4.294e-009  3.216e-009    -8.367    -8.493    -0.126
   AlSO4+                4.286e-009  3.210e-009    -8.368    -8.494    -0.126
   CuSO4                 2.145e-009  2.241e-009    -8.669    -8.650     0.019
   Al(SO4)2-             1.909e-009  1.429e-009    -8.719    -8.845    -0.126
   FeSO4+                1.833e-014  1.372e-014   -13.737   -13.863    -0.126
   Fe(SO4)2-             5.646e-015  4.228e-015   -14.248   -14.374    -0.126
   AlHSO4+2              9.438e-017  2.967e-017   -16.025   -16.528    -0.503
   FeHSO4+2              1.219e-020  3.831e-021   -19.914   -20.417    -0.503
Zn              3.525e-007
   Zn+2                  1.330e-007  4.034e-008    -6.876    -7.394    -0.518
   ZnSO4                 1.274e-007  1.332e-007    -6.895    -6.876     0.019
   Zn(SO4)2-2            4.848e-008  1.524e-008    -7.314    -7.817    -0.503
   ZnHCO3+               2.666e-008  1.996e-008    -7.574    -7.700    -0.126
   ZnCO3                 1.362e-008  1.423e-008    -7.866    -7.847     0.019
   Zn(CO3)2-2            1.711e-009  5.379e-010    -8.767    -9.269    -0.503
   ZnCl+                 9.890e-010  7.406e-010    -9.005    -9.130    -0.126
   ZnOH+                 5.650e-010  4.231e-010    -9.248    -9.374    -0.126
   Zn(OH)2               4.448e-011  4.647e-011   -10.352   -10.333     0.019
   ZnCl2                 5.063e-012  5.290e-012   -11.296   -11.277     0.019
   ZnCl3-                5.407e-014  4.049e-014   -13.267   -13.393    -0.126
   Zn(OH)3-              1.877e-015  1.406e-015   -14.726   -14.852    -0.126
   ZnCl4-2               4.403e-016  1.384e-016   -15.356   -15.859    -0.503
   Zn(OH)4-2             6.780e-021  2.131e-021   -20.169   -20.671    -0.503

------------------------------Saturation indices-------------------------------

	Phase               SI log IAP  log KT

	Al(OH)3(a)       -0.00   10.80   10.80  Al(OH)3
	AlOHSO4          -2.81   -5.01   -2.20  AlOHSO4
	Alunite           5.28    3.88   -1.40  KAl3(SO4)2(OH)6
	Anhydrite        -0.22   -4.58   -4.36  CaSO4
	Aragonite        -0.14   -8.48   -8.34  CaCO3
	Calcite           0.00   -8.48   -8.48  CaCO3
	CH4(g)          -23.79  -26.65   -2.86  CH4
	CO2(g)           -1.57   -3.03   -1.47  CO2
	Dolomite          0.28  -16.81  -17.09  CaMg(CO3)2
	Fe(OH)3           0.00    4.89    4.89  Fe(OH)3
	Fe(OH)3(a)        0.00    4.89    4.89  Fe(OH)3
	FeS(ppt)        -14.35  -18.26   -3.92  FeS
	Gibbsite          2.69   10.80    8.11  Al(OH)3
	Goethite          5.89    4.89   -1.00  FeOOH
	Gypsum            0.00   -4.58   -4.58  CaSO4:2H2O
	H2(g)           -12.00  -15.15   -3.15  H2
	H2O(g)           -1.51   -0.00    1.51  H2O
	H2S(g)          -22.23  -23.23   -1.00  H2S
	Halite           -5.93   -4.34    1.58  NaCl
	Hausmannite     -18.47   42.56   61.03  Mn3O4
	Hematite         13.79    9.79   -4.01  Fe2O3
	Jarosite-K       -4.64  -13.85   -9.21  KFe3(SO4)2(OH)6
	Mackinawite     -13.61  -18.26   -4.65  FeS
	Manganite        -9.15   16.19   25.34  MnOOH
	Melanterite      -1.70   -3.91   -2.21  FeSO4:7H2O
	MnO2            -19.19   22.19   41.38  MnO2
	O2(g)           -59.18  -62.08   -2.89  O2
	Pyrite          -17.95  -36.43  -18.48  FeS2
	Pyrochroite      -5.02   10.18   15.20  Mn(OH)2
	Pyrolusite      -19.19   22.19   41.38  MnO2
	Rhodochrosite     1.60   -9.53  -11.13  MnCO3
	Siderite          3.09   -7.80  -10.89  FeCO3
	Smithsonite      -3.15  -13.15  -10.00  ZnCO3
	Sphalerite      -11.99  -23.60  -11.62  ZnS
	Sulfur          -16.11  -11.23    4.88  S
	Zn(OH)2(e)       -4.93    6.57   11.50  Zn(OH)2

------------------
End of simulation.
------------------

------------------------------------
Reading input data for simulation 2.
------------------------------------

-----------
End of run.
-----------

