   Input file: zn.test
  Output file: zn.test.out
Database file: ../database/wateq4f.dat

------------------
Reading data base.
------------------

	SOLUTION_MASTER_SPECIES
	SOLUTION_SPECIES
	PHASES
	EXCHANGE_MASTER_SPECIES
	EXCHANGE_SPECIES
	SURFACE_MASTER_SPECIES
	SURFACE_SPECIES
	RATES
	END
------------------------------------
Reading input data for simulation 1.
------------------------------------

	DATABASE ../database/wateq4f.dat
	knobs
	PRINT
	SOLUTION 1 Pure water
	        pH      7.0
	        units   mol/kgw
	        pe      4.0
	        temp    25.0
	END
-------------------------------------------
Beginning of initial solution calculations.
-------------------------------------------

Initial solution 1.	Pure water

-----------------------------Solution composition------------------------------

	Elements           Molality       Moles

	Pure water     

----------------------------Description of solution----------------------------

                                       pH  =   7.000    
                                       pe  =   4.000    
                        Activity of water  =   1.000
                           Ionic strength  =  1.001e-007
                       Mass of water (kg)  =  1.000e+000
                 Total alkalinity (eq/kg)  =  1.082e-010
                    Total carbon (mol/kg)  =  0.000e+000
                       Total CO2 (mol/kg)  =  0.000e+000
                      Temperature (deg C)  =  25.000
                  Electrical balance (eq)  = -1.082e-010
 Percent error, 100*(Cat-|An|)/(Cat+|An|)  =  -0.05
                               Iterations  =   0
                                  Total H  = 1.110124e+002
                                  Total O  = 5.550622e+001

----------------------------Distribution of species----------------------------

                                                   Log       Log         Log 
   Species                 Molality    Activity  Molality  Activity     Gamma

   OH-                   1.002e-007  1.001e-007    -6.999    -6.999    -0.000
   H+                    1.001e-007  1.000e-007    -7.000    -7.000    -0.000
   H2O                   5.551e+001  1.000e+000     1.744     0.000     0.000
H(0)            1.416e-025
   H2                    7.079e-026  7.079e-026   -25.150   -25.150     0.000
O(0)            0.000e+000
   O2                    0.000e+000  0.000e+000   -42.080   -42.080     0.000

------------------------------Saturation indices-------------------------------

	Phase               SI log IAP  log KT

	H2(g)           -22.00  -25.15   -3.15  H2
	H2O(g)           -1.51    0.00    1.51  H2O
	O2(g)           -39.19  -42.08   -2.89  O2

------------------
End of simulation.
------------------

------------------------------------
Reading input data for simulation 2.
------------------------------------

	PURE_PHASES 3
		Pyrite		0.0	1.0
		Goethite	0.0	1.0
		Siderite	0.0	1.0
		Sphalerite	0.0	1.0
		Smithsonite	0.0	1.0
		Zincite(c)	0.0	1.0
		Calcite		0.0	1.0
		Dolomite	0.0	1.0
		Gypsum		0.0	1.0
		ZnCO3:H2O	0.0	1.0
		Magnetite	0.0	1.0
		Hematite	0.0	1.0
		Greigite	0.0	1.0
		FeS(ppt)	0.0	1.0
		Mackinawite	0.0	1.0
		Zincosite  	0.0	1.0
		Zn(OH)2-a 	0.0	1.0
		Zn(OH)2-b 	0.0	1.0
		Zn(OH)2-c 	0.0	1.0
		Zn(OH)2-e 	0.0	1.0
		Zn(OH)2-g 	0.0	1.0
		Zn2(OH)2SO4	0.0	1.0
		Zn3O(SO4)2 	0.0	1.0
		Zn4(OH)6SO4	0.0	1.0
		ZnMetal    	0.0	1.0
		ZnO(a)     	0.0	1.0
		ZnS(a)     	0.0	1.0
		ZnSO4:H2O  	0.0	1.0
	USE solution 1
	END
-----------------------------------------
Beginning of batch-reaction calculations.
-----------------------------------------

Reaction step 1.

Using solution 1.	Pure water
Using pure phase assemblage 3.	

-------------------------------Phase assemblage--------------------------------

                                                      Moles in assemblage
Phase                  SI log IAP  log KT      Initial       Final       Delta

Calcite             -3.37  -11.85   -8.48   1.000e+000           0 -1.000e+000
Dolomite            -4.43  -21.52  -17.09   1.000e+000           0 -1.000e+000
FeS(ppt)           -12.45  -16.36   -3.92   1.000e+000           0 -1.000e+000
Goethite            -1.01   -2.01   -1.00   1.000e+000           0 -1.000e+000
Greigite           -41.58  -86.61  -45.03   1.000e+000           0 -1.000e+000
Gypsum               0.00   -4.58   -4.58   1.000e+000  2.994e+000  1.994e+000
Hematite             0.00   -4.01   -4.01   1.000e+000  6.500e+000  5.500e+000
Mackinawite        -11.71  -16.36   -4.65   1.000e+000           0 -1.000e+000
Magnetite           -2.03    1.71    3.74   1.000e+000           0 -1.000e+000
Pyrite              -9.37  -27.85  -18.48   1.000e+000           0 -1.000e+000
Siderite            -4.10  -14.99  -10.89   1.000e+000           0 -1.000e+000
Smithsonite         -0.25  -10.25  -10.00   1.000e+000           0 -1.000e+000
Sphalerite           0.00  -11.62  -11.62   1.000e+000  1.075e+001  9.750e+000
Zincite(c)          -0.68   10.46   11.14   1.000e+000           0 -1.000e+000
Zincosite           -5.96   -2.95    3.01   1.000e+000           0 -1.000e+000
Zn(OH)2-a           -2.00   10.45   12.45   1.000e+000           0 -1.000e+000
Zn(OH)2-b           -1.30   10.45   11.75   1.000e+000           0 -1.000e+000
Zn(OH)2-c           -1.75   10.45   12.20   1.000e+000           0 -1.000e+000
Zn(OH)2-e           -1.05   10.45   11.50   1.000e+000           0 -1.000e+000
Zn(OH)2-g           -1.26   10.45   11.71   1.000e+000           0 -1.000e+000
Zn2(OH)2SO4         -0.00    7.50    7.50   1.000e+000  8.878e-001 -1.122e-001
Zn3O(SO4)2         -14.46    4.56   19.02   1.000e+000           0 -1.000e+000
Zn4(OH)6SO4          0.00   28.40   28.40   1.000e+000  1.037e+000  3.747e-002
ZnCO3:H2O           -0.00  -10.26  -10.26   1.000e+000  6.000e+000  5.000e+000
ZnMetal            -25.89   -0.13   25.76   1.000e+000           0 -1.000e+000
ZnO(a)              -0.85   10.46   11.31   1.000e+000           0 -1.000e+000
ZnS(a)              -2.57  -11.62   -9.05   1.000e+000           0 -1.000e+000
ZnSO4:H2O           -2.39   -2.96   -0.57   1.000e+000           0 -1.000e+000

-----------------------------Solution composition------------------------------

	Elements           Molality       Moles

	C                3.669e-004  3.505e-004
	Ca               6.753e-003  6.450e-003
	Fe               3.327e-006  3.178e-006
	Mg               1.047e+000  1.000e+000
	S                1.394e+000  1.331e+000
	Zn               3.402e-001  3.249e-001

----------------------------Description of solution----------------------------

                                       pH  =   5.990      Charge balance
                                       pe  =  -0.688      Adjusted to redox equilibrium
                        Activity of water  =   0.971
                           Ionic strength  =  1.591e+000
                       Mass of water (kg)  =  9.552e-001
                 Total alkalinity (eq/kg)  =  3.415e-004
                       Total CO2 (mol/kg)  =  3.669e-004
                      Temperature (deg C)  =  25.000
                  Electrical balance (eq)  = -7.433e-011
 Percent error, 100*(Cat-|An|)/(Cat+|An|)  =  -0.00
                               Iterations  =  20
                                  Total H  = 1.060386e+002
                                  Total O  = 5.834496e+001

----------------------------Distribution of species----------------------------

                                                   Log       Log         Log 
   Species                 Molality    Activity  Molality  Activity     Gamma

   H+                    1.398e-006  1.023e-006    -5.854    -5.990    -0.136
   OH-                   1.045e-008  9.510e-009    -7.981    -8.022    -0.041
   H2O                   5.551e+001  9.714e-001     1.744    -0.013     0.000
C(-4)           6.403e-023
   CH4                   6.403e-023  9.237e-023   -22.194   -22.034     0.159
C(4)            3.669e-004
   ZnHCO3+               1.707e-004  1.553e-004    -3.768    -3.809    -0.041
   CO2                   6.481e-005  9.348e-005    -4.188    -4.029     0.159
   HCO3-                 6.239e-005  3.950e-005    -4.205    -4.403    -0.199
   MgHCO3+               6.068e-005  5.522e-005    -4.217    -4.258    -0.041
   ZnCO3                 7.825e-006  1.129e-005    -5.107    -4.947     0.159
   CaHCO3+               4.286e-007  3.900e-007    -6.368    -6.409    -0.041
   MgCO3                 1.432e-007  2.065e-007    -6.844    -6.685     0.159
   CO3-2                 1.127e-008  1.811e-009    -7.948    -8.742    -0.794
   FeHCO3+               2.450e-009  2.230e-009    -8.611    -8.652    -0.041
   CaCO3                 1.629e-009  2.349e-009    -8.788    -8.629     0.159
   Zn(CO3)2-2            6.376e-010  4.371e-010    -9.195    -9.359    -0.164
   FeCO3                 1.701e-011  2.453e-011   -10.769   -10.610     0.159
Ca              6.753e-003
   CaSO4                 3.847e-003  5.549e-003    -2.415    -2.256     0.159
   Ca+2                  2.905e-003  7.741e-004    -2.537    -3.111    -0.574
   CaHCO3+               4.286e-007  3.900e-007    -6.368    -6.409    -0.041
   CaHSO4+               3.653e-008  3.324e-008    -7.437    -7.478    -0.041
   CaCO3                 1.629e-009  2.349e-009    -8.788    -8.629     0.159
   CaOH+                 1.341e-010  1.220e-010    -9.872    -9.913    -0.041
Fe(2)           3.327e-006
   FeSO4                 2.500e-006  3.607e-006    -5.602    -5.443     0.159
   Fe+2                  8.234e-007  5.645e-007    -6.084    -6.248    -0.164
   FeHCO3+               2.450e-009  2.230e-009    -8.611    -8.652    -0.041
   FeOH+                 1.864e-010  1.696e-010    -9.730    -9.771    -0.041
   FeHSO4+               2.664e-011  2.424e-011   -10.574   -10.615    -0.041
   FeCO3                 1.701e-011  2.453e-011   -10.769   -10.610     0.159
   Fe(OH)2               9.507e-016  1.371e-015   -15.022   -14.863     0.159
   Fe(OH)3-              5.319e-020  4.840e-020   -19.274   -19.315    -0.041
   Fe(HS)2               2.172e-030  3.133e-030   -29.663   -29.504     0.159
   Fe(HS)3-              0.000e+000  0.000e+000   -43.529   -43.570    -0.041
Fe(3)           2.539e-014
   Fe(OH)2+              2.346e-014  2.135e-014   -13.630   -13.671    -0.041
   Fe(OH)3               1.811e-015  2.613e-015   -14.742   -14.583     0.159
   FeOH+2                9.900e-017  6.787e-017   -16.004   -16.168    -0.164
   FeSO4+                4.791e-018  4.359e-018   -17.320   -17.361    -0.041
   Fe(SO4)2-             3.766e-018  3.426e-018   -17.424   -17.465    -0.041
   Fe(OH)4-              2.488e-018  2.264e-018   -17.604   -17.645    -0.041
   Fe+3                  2.587e-020  1.107e-020   -19.587   -19.956    -0.369
   FeHSO4+2              1.741e-023  1.194e-023   -22.759   -22.923    -0.164
   Fe2(OH)2+4            5.613e-031  1.240e-031   -30.251   -30.907    -0.656
   Fe3(OH)4+5            0.000e+000  0.000e+000   -41.233   -42.257    -1.025
H(0)            2.436e-014
   H2                    1.218e-014  1.757e-014   -13.914   -13.755     0.159
Mg              1.047e+000
   MgSO4                 6.976e-001  1.006e+000    -0.156     0.003     0.159
   Mg+2                  3.492e-001  1.195e-001    -0.457    -0.923    -0.466
   MgHCO3+               6.068e-005  5.522e-005    -4.217    -4.258    -0.041
   MgOH+                 4.529e-007  4.121e-007    -6.344    -6.385    -0.041
   MgCO3                 1.432e-007  2.065e-007    -6.844    -6.685     0.159
O(0)            0.000e+000
   O2                    0.000e+000  0.000e+000   -65.054   -64.895     0.159
S(-2)           5.766e-016
   H2S                   4.891e-016  7.055e-016   -15.311   -15.151     0.159
   HS-                   8.672e-017  7.891e-017   -16.062   -16.103    -0.041
   Zn(HS)2               1.174e-019  1.694e-019   -18.930   -18.771     0.159
   S5-2                  5.283e-020  1.961e-020   -19.277   -19.708    -0.430
   S4-2                  3.616e-020  1.144e-020   -19.442   -19.942    -0.500
   S6-2                  2.424e-020  1.015e-020   -19.616   -19.994    -0.378
   S3-2                  1.589e-023  4.031e-024   -22.799   -23.395    -0.596
   S-2                   1.360e-023  9.321e-024   -22.867   -23.031    -0.164
   S2-2                  1.136e-024  2.288e-025   -23.945   -24.641    -0.696
   Fe(HS)2               2.172e-030  3.133e-030   -29.663   -29.504     0.159
   Zn(HS)3-              2.123e-034  1.932e-034   -33.673   -33.714    -0.041
   Fe(HS)3-              0.000e+000  0.000e+000   -43.529   -43.570    -0.041
S(6)            1.394e+000
   MgSO4                 6.976e-001  1.006e+000    -0.156     0.003     0.159
   SO4-2                 2.857e-001  3.593e-002    -0.544    -1.445    -0.901
   ZnSO4                 1.823e-001  2.630e-001    -0.739    -0.580     0.159
   Zn(SO4)2-2            1.120e-001  7.681e-002    -0.951    -1.115    -0.164
   CaSO4                 3.847e-003  5.549e-003    -2.415    -2.256     0.159
   HSO4-                 3.926e-006  3.572e-006    -5.406    -5.447    -0.041
   FeSO4                 2.500e-006  3.607e-006    -5.602    -5.443     0.159
   CaHSO4+               3.653e-008  3.324e-008    -7.437    -7.478    -0.041
   FeHSO4+               2.664e-011  2.424e-011   -10.574   -10.615    -0.041
   FeSO4+                4.791e-018  4.359e-018   -17.320   -17.361    -0.041
   Fe(SO4)2-             3.766e-018  3.426e-018   -17.424   -17.465    -0.041
   FeHSO4+2              1.741e-023  1.194e-023   -22.759   -22.923    -0.164
Zn              3.402e-001
   ZnSO4                 1.823e-001  2.630e-001    -0.739    -0.580     0.159
   Zn(SO4)2-2            1.120e-001  7.681e-002    -0.951    -1.115    -0.164
   Zn+2                  4.555e-002  3.123e-002    -1.341    -1.505    -0.164
   ZnHCO3+               1.707e-004  1.553e-004    -3.768    -3.809    -0.041
   ZnOH+                 3.575e-005  3.253e-005    -4.447    -4.488    -0.041
   ZnCO3                 7.825e-006  1.129e-005    -5.107    -4.947     0.159
   Zn(OH)2               2.460e-007  3.548e-007    -6.609    -6.450     0.159
   Zn(CO3)2-2            6.376e-010  4.371e-010    -9.195    -9.359    -0.164
   Zn(OH)3-              1.171e-012  1.066e-012   -11.931   -11.972    -0.041
   Zn(OH)4-2             2.341e-019  1.605e-019   -18.631   -18.795    -0.164
   Zn(HS)2               1.174e-019  1.694e-019   -18.930   -18.771     0.159
   Zn(HS)3-              2.123e-034  1.932e-034   -33.673   -33.714    -0.041

------------------------------Saturation indices-------------------------------

	Phase               SI log IAP  log KT

	Anhydrite        -0.19   -4.56   -4.36  CaSO4
	Aragonite        -3.52  -11.85   -8.34  CaCO3
	Artinite         -8.27    1.33    9.60  MgCO3:Mg(OH)2:3H2O
	Bianchite        -1.26   -3.03   -1.76  ZnSO4:6H2O
	Brucite          -5.81   11.03   16.84  Mg(OH)2
	Calcite          -3.37  -11.85   -8.48  CaCO3
	CH4(g)          -19.17  -22.03   -2.86  CH4
	CO2(g)           -2.56   -4.03   -1.47  CO2
	Dolomite         -4.43  -21.52  -17.09  CaMg(CO3)2
	Dolomite(d)      -4.98  -21.52  -16.54  CaMg(CO3)2
	Epsomite         -0.32   -2.46   -2.14  MgSO4:7H2O
	Fe(OH)3(a)       -6.91   -2.02    4.89  Fe(OH)3
	Fe3(OH)8        -18.56    1.66   20.22  Fe3(OH)8
	FeS(ppt)        -12.45  -16.36   -3.92  FeS
	Goethite         -1.01   -2.01   -1.00  FeOOH
	Goslarite        -1.08   -3.04   -1.96  ZnSO4:7H2O
	Greigite        -41.58  -86.61  -45.03  Fe3S4
	Gypsum            0.00   -4.58   -4.58  CaSO4:2H2O
	H2(g)           -10.61  -13.76   -3.15  H2
	H2O(g)           -1.52   -0.01    1.51  H2O
	H2S(g)          -14.15  -15.15   -1.00  H2S
	Hematite          0.00   -4.01   -4.01  Fe2O3
	Huntite         -10.88  -40.85  -29.97  CaMg3(CO3)4
	Hydromagnesite  -18.91  -27.68   -8.76  Mg5(CO3)4(OH)2:4H2O
	JarositeH       -27.50  -32.89   -5.39  (H3O)Fe3(SO4)2(OH)6
	Mackinawite     -11.71  -16.36   -4.65  FeS
	Maghemite       -10.39   -4.01    6.39  Fe2O3
	Magnesite        -1.64   -9.66   -8.03  MgCO3
	Magnetite        -2.03    1.71    3.74  Fe3O4
	Melanterite      -5.57   -7.78   -2.21  FeSO4:7H2O
	Nesquehonite     -4.08   -9.70   -5.62  MgCO3:3H2O
	O2(g)           -62.00  -64.89   -2.89  O2
	Portlandite     -13.96    8.84   22.80  Ca(OH)2
	Pyrite           -9.37  -27.85  -18.48  FeS2
	Siderite         -4.10  -14.99  -10.89  FeCO3
	Siderite(d)(3)   -4.54  -14.99  -10.45  FeCO3
	Smithsonite      -0.25  -10.25  -10.00  ZnCO3
	Sphalerite        0.00  -11.62  -11.62  ZnS
	Sulfur           -9.38  -24.41  -15.03  S
	Wurtzite         -1.94  -11.62   -9.68  ZnS
	Zincite(c)       -0.68   10.46   11.14  ZnO
	Zincosite        -5.96   -2.95    3.01  ZnSO4
	Zn(OH)2-a        -2.00   10.45   12.45  Zn(OH)2
	Zn(OH)2-b        -1.30   10.45   11.75  Zn(OH)2
	Zn(OH)2-c        -1.75   10.45   12.20  Zn(OH)2
	Zn(OH)2-e        -1.05   10.45   11.50  Zn(OH)2
	Zn(OH)2-g        -1.26   10.45   11.71  Zn(OH)2
	Zn2(OH)2SO4      -0.00    7.50    7.50  Zn2(OH)2SO4
	Zn3O(SO4)2      -14.46    4.56   19.02  ZnO:2ZnSO4
	Zn4(OH)6SO4       0.00   28.40   28.40  Zn4(OH)6SO4
	ZnCO3:H2O        -0.00  -10.26  -10.26  ZnCO3:H2O
	ZnMetal         -25.89   -0.13   25.76  Zn
	ZnO(a)           -0.85   10.46   11.31  ZnO
	ZnS(a)           -2.57  -11.62   -9.05  ZnS
	ZnSO4:H2O        -2.39   -2.96   -0.57  ZnSO4:H2O

------------------
End of simulation.
------------------

------------------------------------
Reading input data for simulation 3.
------------------------------------

	SOLUTION 1 Pure water
	        pH      7.0
	        units   mol/kgw
	        pe      4.0
	        temp    25.0
	END
-------------------------------------------
Beginning of initial solution calculations.
-------------------------------------------

Initial solution 1.	Pure water

-----------------------------Solution composition------------------------------

	Elements           Molality       Moles

	Pure water     

----------------------------Description of solution----------------------------

                                       pH  =   7.000    
                                       pe  =   4.000    
                        Activity of water  =   1.000
                           Ionic strength  =  1.001e-007
                       Mass of water (kg)  =  1.000e+000
                 Total alkalinity (eq/kg)  =  1.082e-010
                    Total carbon (mol/kg)  =  0.000e+000
                       Total CO2 (mol/kg)  =  0.000e+000
                      Temperature (deg C)  =  25.000
                  Electrical balance (eq)  = -1.082e-010
 Percent error, 100*(Cat-|An|)/(Cat+|An|)  =  -0.05
                               Iterations  =   0
                                  Total H  = 1.110124e+002
                                  Total O  = 5.550622e+001

----------------------------Distribution of species----------------------------

                                                   Log       Log         Log 
   Species                 Molality    Activity  Molality  Activity     Gamma

   OH-                   1.002e-007  1.001e-007    -6.999    -6.999    -0.000
   H+                    1.001e-007  1.000e-007    -7.000    -7.000    -0.000
   H2O                   5.551e+001  1.000e+000     1.744     0.000     0.000
H(0)            1.416e-025
   H2                    7.079e-026  7.079e-026   -25.150   -25.150     0.000
O(0)            0.000e+000
   O2                    0.000e+000  0.000e+000   -42.080   -42.080     0.000

------------------------------Saturation indices-------------------------------

	Phase               SI log IAP  log KT

	H2(g)           -22.00  -25.15   -3.15  H2
	H2O(g)           -1.51    0.00    1.51  H2O
	O2(g)           -39.19  -42.08   -2.89  O2

------------------
End of simulation.
------------------

------------------------------------
Reading input data for simulation 4.
------------------------------------

	PURE_PHASES 3
		Pyrite		0.0	2.0
		Goethite	0.0	2.0
		Siderite	0.0	2.0
		Sphalerite	0.0	2.0
		Smithsonite	0.0	2.0
		Zincite(c)	0.0	2.0
		Calcite		0.0	2.0
		Dolomite	0.0	2.0
		Gypsum		0.0	2.0
		ZnCO3:H2O	0.0	2.0
		Magnetite	0.0	2.0
		Hematite	0.0	2.0
		Greigite	0.0	2.0
		FeS(ppt)	0.0	2.0
		Mackinawite	0.0	2.0
		Zincosite  	0.0	2.0
		Zn(OH)2-a 	0.0	2.0
		Zn(OH)2-b 	0.0	2.0
		Zn(OH)2-c 	0.0	2.0
		Zn(OH)2-e 	0.0	2.0
		Zn(OH)2-g 	0.0	2.0
		Zn2(OH)2SO4	0.0	2.0
		Zn3O(SO4)2 	0.0	2.0
		Zn4(OH)6SO4	0.0	2.0
		ZnMetal    	0.0	2.0
		ZnO(a)     	0.0	2.0
		ZnS(a)     	0.0	2.0
		ZnSO4:H2O  	0.0	2.0
	USE solution 1
	END
-----------------------------------------
Beginning of batch-reaction calculations.
-----------------------------------------

Reaction step 1.

Using solution 1.	Pure water
Using pure phase assemblage 3.	

-------------------------------Phase assemblage--------------------------------

                                                      Moles in assemblage
Phase                  SI log IAP  log KT      Initial       Final       Delta

Calcite             -3.34  -11.82   -8.48   2.000e+000           0 -2.000e+000
Dolomite            -3.95  -21.04  -17.09   2.000e+000           0 -2.000e+000
FeS(ppt)           -12.46  -16.37   -3.92   2.000e+000           0 -2.000e+000
Goethite            -1.02   -2.02   -1.00   2.000e+000           0 -2.000e+000
Greigite           -41.61  -86.65  -45.03   2.000e+000           0 -2.000e+000
Gypsum               0.00   -4.58   -4.58   2.000e+000  5.995e+000  3.995e+000
Hematite             0.00   -4.01   -4.01   2.000e+000  1.300e+001  1.100e+001
Mackinawite        -11.72  -16.37   -4.65   2.000e+000           0 -2.000e+000
Magnetite           -2.03    1.71    3.74   2.000e+000           0 -2.000e+000
Pyrite              -9.39  -27.87  -18.48   2.000e+000           0 -2.000e+000
Siderite            -4.10  -14.99  -10.89   2.000e+000           0 -2.000e+000
Smithsonite         -0.24  -10.24  -10.00   2.000e+000           0 -2.000e+000
Sphalerite           0.00  -11.62  -11.62   2.000e+000  2.150e+001  1.950e+001
Zincite(c)          -0.67   10.47   11.14   2.000e+000           0 -2.000e+000
Zincosite           -5.96   -2.95    3.01   2.000e+000           0 -2.000e+000
Zn(OH)2-a           -2.00   10.45   12.45   2.000e+000           0 -2.000e+000
Zn(OH)2-b           -1.30   10.45   11.75   2.000e+000           0 -2.000e+000
Zn(OH)2-c           -1.75   10.45   12.20   2.000e+000           0 -2.000e+000
Zn(OH)2-e           -1.05   10.45   11.50   2.000e+000           0 -2.000e+000
Zn(OH)2-g           -1.26   10.45   11.71   2.000e+000           0 -2.000e+000
Zn2(OH)2SO4         -0.00    7.50    7.50   2.000e+000  2.408e+000  4.084e-001
Zn3O(SO4)2         -14.45    4.57   19.02   2.000e+000           0 -2.000e+000
Zn4(OH)6SO4          0.00   28.40   28.40   2.000e+000  1.864e+000 -1.361e-001
ZnCO3:H2O            0.00  -10.26  -10.26   2.000e+000  1.200e+001  1.000e+001
ZnMetal            -25.88   -0.12   25.76   2.000e+000           0 -2.000e+000
ZnO(a)              -0.84   10.47   11.31   2.000e+000           0 -2.000e+000
ZnS(a)              -2.57  -11.62   -9.05   2.000e+000           0 -2.000e+000
ZnSO4:H2O           -2.40   -2.97   -0.57   2.000e+000           0 -2.000e+000

-----------------------------Solution composition------------------------------

	Elements           Molality       Moles

	C                3.752e-004  3.415e-004
	Ca               5.294e-003  4.818e-003
	Fe               2.378e-006  2.164e-006
	Mg               2.198e+000  2.000e+000
	S                2.453e+000  2.233e+000
	Zn               2.504e-001  2.278e-001

----------------------------Description of solution----------------------------

                                       pH  =   6.078      Charge balance
                                       pe  =  -0.771      Adjusted to redox equilibrium
                        Activity of water  =   0.950
                           Ionic strength  =  2.245e+000
                       Mass of water (kg)  =  9.101e-001
                 Total alkalinity (eq/kg)  =  3.479e-004
                       Total CO2 (mol/kg)  =  3.752e-004
                      Temperature (deg C)  =  25.000
                  Electrical balance (eq)  = -1.773e-009
 Percent error, 100*(Cat-|An|)/(Cat+|An|)  =  -0.00
                               Iterations  =  21
                                  Total H  = 1.010320e+002
                                  Total O  = 5.944689e+001

----------------------------Distribution of species----------------------------

                                                   Log       Log         Log 
   Species                 Molality    Activity  Molality  Activity     Gamma

   H+                    1.154e-006  8.350e-007    -5.938    -6.078    -0.141
   OH-                   1.045e-008  1.139e-008    -7.981    -7.943     0.038
   H2O                   5.551e+001  9.501e-001     1.744    -0.022     0.000
C(-4)           5.269e-023
   CH4                   5.269e-023  8.835e-023   -22.278   -22.054     0.225
C(4)            3.752e-004
   ZnHCO3+               1.189e-004  1.297e-004    -3.925    -3.887     0.038
   MgHCO3+               1.165e-004  1.270e-004    -3.934    -3.896     0.038
   HCO3-                 7.649e-005  4.731e-005    -4.116    -4.325    -0.209
   CO2                   5.575e-005  9.348e-005    -4.254    -4.029     0.225
   ZnCO3                 6.882e-006  1.154e-005    -5.162    -4.938     0.225
   MgCO3                 3.470e-007  5.819e-007    -6.460    -6.235     0.225
   CaHCO3+               3.122e-007  3.404e-007    -6.506    -6.468     0.038
   CO3-2                 1.816e-008  2.657e-009    -7.741    -8.576    -0.835
   FeHCO3+               1.670e-009  1.821e-009    -8.777    -8.740     0.038
   CaCO3                 1.498e-009  2.511e-009    -8.825    -8.600     0.225
   Zn(CO3)2-2            4.638e-010  6.555e-010    -9.334    -9.183     0.150
   FeCO3                 1.463e-011  2.453e-011   -10.835   -10.610     0.225
Ca              5.294e-003
   CaSO4                 3.460e-003  5.802e-003    -2.461    -2.236     0.225
   Ca+2                  1.834e-003  5.642e-004    -2.737    -3.249    -0.512
   CaHCO3+               3.122e-007  3.404e-007    -6.506    -6.468     0.038
   CaHSO4+               2.603e-008  2.838e-008    -7.585    -7.547     0.038
   CaCO3                 1.498e-009  2.511e-009    -8.825    -8.600     0.225
   CaOH+                 9.771e-011  1.065e-010   -10.010    -9.972     0.038
Fe(2)           2.378e-006
   FeSO4                 2.104e-006  3.528e-006    -5.677    -5.453     0.225
   Fe+2                  2.723e-007  3.849e-007    -6.565    -6.415     0.150
   FeHCO3+               1.670e-009  1.821e-009    -8.777    -8.740     0.038
   FeOH+                 1.270e-010  1.385e-010    -9.896    -9.859     0.038
   FeHSO4+               1.776e-011  1.936e-011   -10.751   -10.713     0.038
   FeCO3                 1.463e-011  2.453e-011   -10.835   -10.610     0.225
   Fe(OH)2               7.998e-016  1.341e-015   -15.097   -14.873     0.225
   Fe(OH)3-              5.199e-020  5.669e-020   -19.284   -19.246     0.038
   Fe(HS)2               1.748e-030  2.931e-030   -29.758   -29.533     0.225
   Fe(HS)3-              0.000e+000  0.000e+000   -43.568   -43.530     0.038
Fe(3)           1.736e-014
   Fe(OH)2+              1.581e-014  1.724e-014   -13.801   -13.763     0.038
   Fe(OH)3               1.507e-015  2.527e-015   -14.822   -14.597     0.225
   FeOH+2                3.238e-017  4.576e-017   -16.490   -16.339     0.150
   Fe(SO4)2-             3.640e-018  3.969e-018   -17.439   -17.401     0.038
   FeSO4+                3.229e-018  3.520e-018   -17.491   -17.453     0.038
   Fe(OH)4-              2.405e-018  2.622e-018   -17.619   -17.581     0.038
   Fe+3                  2.860e-021  6.230e-021   -20.544   -20.206     0.338
   FeHSO4+2              5.569e-024  7.872e-024   -23.254   -23.104     0.150
   Fe2(OH)2+4            1.412e-032  5.637e-032   -31.850   -31.249     0.601
   Fe3(OH)4+5            0.000e+000  0.000e+000   -43.632   -42.692     0.939
H(0)            2.050e-014
   H2                    1.025e-014  1.719e-014   -13.989   -13.765     0.225
Mg              2.198e+000
   MgSO4                 1.654e+000  2.773e+000     0.218     0.443     0.225
   Mg+2                  5.439e-001  2.295e-001    -0.264    -0.639    -0.375
   MgHCO3+               1.165e-004  1.270e-004    -3.934    -3.896     0.038
   MgOH+                 8.695e-007  9.481e-007    -6.061    -6.023     0.038
   MgCO3                 3.470e-007  5.819e-007    -6.460    -6.235     0.225
O(0)            0.000e+000
   O2                    0.000e+000  0.000e+000   -65.119   -64.895     0.225
S(-2)           4.882e-016
   H2S                   4.024e-016  6.748e-016   -15.395   -15.171     0.225
   HS-                   8.477e-017  9.243e-017   -16.072   -16.034     0.038
   Zn(HS)2               9.661e-020  1.620e-019   -19.015   -18.790     0.225
   S5-2                  7.786e-020  2.813e-020   -19.109   -19.551    -0.442
   S4-2                  5.380e-020  1.641e-020   -19.269   -19.785    -0.516
   S6-2                  3.549e-020  1.456e-020   -19.450   -19.837    -0.387
   S3-2                  2.402e-023  5.782e-024   -22.619   -23.238    -0.618
   S-2                   9.458e-024  1.337e-023   -23.024   -22.874     0.150
   S2-2                  1.751e-024  3.282e-025   -23.757   -24.484    -0.727
   Fe(HS)2               1.748e-030  2.931e-030   -29.758   -29.533     0.225
   Zn(HS)3-              1.985e-034  2.164e-034   -33.702   -33.665     0.038
   Fe(HS)3-              0.000e+000  0.000e+000   -43.568   -43.530     0.038
S(6)            2.453e+000
   MgSO4                 1.654e+000  2.773e+000     0.218     0.443     0.225
   SO4-2                 4.833e-001  5.154e-002    -0.316    -1.288    -0.972
   ZnSO4                 1.569e-001  2.630e-001    -0.805    -0.580     0.225
   Zn(SO4)2-2            7.795e-002  1.102e-001    -1.108    -0.958     0.150
   CaSO4                 3.460e-003  5.802e-003    -2.461    -2.236     0.225
   HSO4-                 3.837e-006  4.184e-006    -5.416    -5.378     0.038
   FeSO4                 2.104e-006  3.528e-006    -5.677    -5.453     0.225
   CaHSO4+               2.603e-008  2.838e-008    -7.585    -7.547     0.038
   FeHSO4+               1.776e-011  1.936e-011   -10.751   -10.713     0.038
   Fe(SO4)2-             3.640e-018  3.969e-018   -17.439   -17.401     0.038
   FeSO4+                3.229e-018  3.520e-018   -17.491   -17.453     0.038
   FeHSO4+2              5.569e-024  7.872e-024   -23.254   -23.104     0.150
Zn              2.504e-001
   ZnSO4                 1.569e-001  2.630e-001    -0.805    -0.580     0.225
   Zn(SO4)2-2            7.795e-002  1.102e-001    -1.108    -0.958     0.150
   Zn+2                  1.540e-002  2.177e-002    -1.812    -1.662     0.150
   ZnHCO3+               1.189e-004  1.297e-004    -3.925    -3.887     0.038
   ZnOH+                 2.491e-005  2.716e-005    -4.604    -4.566     0.038
   ZnCO3                 6.882e-006  1.154e-005    -5.162    -4.938     0.225
   Zn(OH)2               2.116e-007  3.548e-007    -6.675    -6.450     0.225
   Zn(CO3)2-2            4.638e-010  6.555e-010    -9.334    -9.183     0.150
   Zn(OH)3-              1.171e-012  1.277e-012   -11.932   -11.894     0.038
   Zn(OH)4-2             1.629e-019  2.302e-019   -18.788   -18.638     0.150
   Zn(HS)2               9.661e-020  1.620e-019   -19.015   -18.790     0.225
   Zn(HS)3-              1.985e-034  2.164e-034   -33.702   -33.665     0.038

------------------------------Saturation indices-------------------------------

	Phase               SI log IAP  log KT

	Anhydrite        -0.18   -4.54   -4.36  CaSO4
	Aragonite        -3.49  -11.82   -8.34  CaCO3
	Artinite         -7.41    2.19    9.60  MgCO3:Mg(OH)2:3H2O
	Bianchite        -1.32   -3.08   -1.76  ZnSO4:6H2O
	Brucite          -5.37   11.47   16.84  Mg(OH)2
	Calcite          -3.34  -11.82   -8.48  CaCO3
	CH4(g)          -19.19  -22.05   -2.86  CH4
	CO2(g)           -2.56   -4.03   -1.47  CO2
	Dolomite         -3.95  -21.04  -17.09  CaMg(CO3)2
	Dolomite(d)      -4.50  -21.04  -16.54  CaMg(CO3)2
	Epsomite          0.06   -2.08   -2.14  MgSO4:7H2O
	Fe(OH)3(a)       -6.93   -2.04    4.89  Fe(OH)3
	Fe3(OH)8        -18.60    1.62   20.22  Fe3(OH)8
	FeS(ppt)        -12.46  -16.37   -3.92  FeS
	Goethite         -1.02   -2.02   -1.00  FeOOH
	Goslarite        -1.15   -3.11   -1.96  ZnSO4:7H2O
	Greigite        -41.61  -86.65  -45.03  Fe3S4
	Gypsum            0.00   -4.58   -4.58  CaSO4:2H2O
	H2(g)           -10.61  -13.76   -3.15  H2
	H2O(g)           -1.53   -0.02    1.51  H2O
	H2S(g)          -14.17  -15.17   -1.00  H2S
	Hematite          0.00   -4.01   -4.01  Fe2O3
	Huntite          -9.50  -39.47  -29.97  CaMg3(CO3)4
	Hydromagnesite  -16.71  -25.48   -8.76  Mg5(CO3)4(OH)2:4H2O
	JarositeH       -27.57  -32.96   -5.39  (H3O)Fe3(SO4)2(OH)6
	Mackinawite     -11.72  -16.37   -4.65  FeS
	Maghemite       -10.39   -4.01    6.39  Fe2O3
	Magnesite        -1.19   -9.21   -8.03  MgCO3
	Magnetite        -2.03    1.71    3.74  Fe3O4
	Melanterite      -5.65   -7.86   -2.21  FeSO4:7H2O
	Nesquehonite     -3.66   -9.28   -5.62  MgCO3:3H2O
	O2(g)           -62.00  -64.89   -2.89  O2
	Portlandite     -13.94    8.86   22.80  Ca(OH)2
	Pyrite           -9.39  -27.87  -18.48  FeS2
	Siderite         -4.10  -14.99  -10.89  FeCO3
	Siderite(d)(3)   -4.54  -14.99  -10.45  FeCO3
	Smithsonite      -0.24  -10.24  -10.00  ZnCO3
	Sphalerite        0.00  -11.62  -11.62  ZnS
	Sulfur           -9.39  -24.42  -15.03  S
	Wurtzite         -1.94  -11.62   -9.68  ZnS
	Zincite(c)       -0.67   10.47   11.14  ZnO
	Zincosite        -5.96   -2.95    3.01  ZnSO4
	Zn(OH)2-a        -2.00   10.45   12.45  Zn(OH)2
	Zn(OH)2-b        -1.30   10.45   11.75  Zn(OH)2
	Zn(OH)2-c        -1.75   10.45   12.20  Zn(OH)2
	Zn(OH)2-e        -1.05   10.45   11.50  Zn(OH)2
	Zn(OH)2-g        -1.26   10.45   11.71  Zn(OH)2
	Zn2(OH)2SO4      -0.00    7.50    7.50  Zn2(OH)2SO4
	Zn3O(SO4)2      -14.45    4.57   19.02  ZnO:2ZnSO4
	Zn4(OH)6SO4       0.00   28.40   28.40  Zn4(OH)6SO4
	ZnCO3:H2O         0.00  -10.26  -10.26  ZnCO3:H2O
	ZnMetal         -25.88   -0.12   25.76  Zn
	ZnO(a)           -0.84   10.47   11.31  ZnO
	ZnS(a)           -2.57  -11.62   -9.05  ZnS
	ZnSO4:H2O        -2.40   -2.97   -0.57  ZnSO4:H2O

------------------
End of simulation.
------------------

------------------------------------
Reading input data for simulation 5.
------------------------------------

	SOLUTION 1 Pure water
	        pH      7.0
	        units   mol/kgw
	        pe      4.0
	        temp    25.0
	END
-------------------------------------------
Beginning of initial solution calculations.
-------------------------------------------

Initial solution 1.	Pure water

-----------------------------Solution composition------------------------------

	Elements           Molality       Moles

	Pure water     

----------------------------Description of solution----------------------------

                                       pH  =   7.000    
                                       pe  =   4.000    
                        Activity of water  =   1.000
                           Ionic strength  =  1.001e-007
                       Mass of water (kg)  =  1.000e+000
                 Total alkalinity (eq/kg)  =  1.082e-010
                    Total carbon (mol/kg)  =  0.000e+000
                       Total CO2 (mol/kg)  =  0.000e+000
                      Temperature (deg C)  =  25.000
                  Electrical balance (eq)  = -1.082e-010
 Percent error, 100*(Cat-|An|)/(Cat+|An|)  =  -0.05
                               Iterations  =   0
                                  Total H  = 1.110124e+002
                                  Total O  = 5.550622e+001

----------------------------Distribution of species----------------------------

                                                   Log       Log         Log 
   Species                 Molality    Activity  Molality  Activity     Gamma

   OH-                   1.002e-007  1.001e-007    -6.999    -6.999    -0.000
   H+                    1.001e-007  1.000e-007    -7.000    -7.000    -0.000
   H2O                   5.551e+001  1.000e+000     1.744     0.000     0.000
H(0)            1.416e-025
   H2                    7.079e-026  7.079e-026   -25.150   -25.150     0.000
O(0)            0.000e+000
   O2                    0.000e+000  0.000e+000   -42.080   -42.080     0.000

------------------------------Saturation indices-------------------------------

	Phase               SI log IAP  log KT

	H2(g)           -22.00  -25.15   -3.15  H2
	H2O(g)           -1.51    0.00    1.51  H2O
	O2(g)           -39.19  -42.08   -2.89  O2

------------------
End of simulation.
------------------

------------------------------------
Reading input data for simulation 6.
------------------------------------

	PURE_PHASES 3
		Pyrite		0.0	3.0
		Goethite	0.0	3.0
		Siderite	0.0	3.0
		Sphalerite	0.0	3.0
		Smithsonite	0.0	3.0
		Zincite(c)	0.0	3.0
		Calcite		0.0	3.0
		Dolomite	0.0	3.0
		Gypsum		0.0	3.0
		ZnCO3:H2O	0.0	3.0
		Magnetite	0.0	3.0
		Hematite	0.0	3.0
		Greigite	0.0	3.0
		FeS(ppt)	0.0	3.0
		Mackinawite	0.0	3.0
		Zincosite  	0.0	3.0
		Zn(OH)2-a 	0.0	3.0
		Zn(OH)2-b 	0.0	3.0
		Zn(OH)2-c 	0.0	3.0
		Zn(OH)2-e 	0.0	3.0
		Zn(OH)2-g 	0.0	3.0
		Zn2(OH)2SO4	0.0	3.0
		Zn3O(SO4)2 	0.0	3.0
		Zn4(OH)6SO4	0.0	3.0
		ZnMetal    	0.0	3.0
		ZnO(a)     	0.0	3.0
		ZnS(a)     	0.0	3.0
		ZnSO4:H2O  	0.0	3.0
	USE solution 1
	END
-----------------------------------------
Beginning of batch-reaction calculations.
-----------------------------------------

Reaction step 1.

Using solution 1.	Pure water
Using pure phase assemblage 3.	

-------------------------------Phase assemblage--------------------------------

                                                      Moles in assemblage
Phase                  SI log IAP  log KT      Initial       Final       Delta

Calcite             -3.31  -11.79   -8.48   3.000e+000           0 -3.000e+000
Dolomite            -3.62  -20.71  -17.09   3.000e+000           0 -3.000e+000
FeS(ppt)           -12.47  -16.38   -3.92   3.000e+000           0 -3.000e+000
Goethite            -1.02   -2.02   -1.00   3.000e+000           0 -3.000e+000
Greigite           -41.66  -86.69  -45.03   3.000e+000           0 -3.000e+000
Gypsum               0.00   -4.58   -4.58   3.000e+000  8.996e+000  5.996e+000
Hematite             0.00   -4.01   -4.01   3.000e+000  1.950e+001  1.650e+001
Mackinawite        -11.73  -16.38   -4.65   3.000e+000           0 -3.000e+000
Magnetite           -2.03    1.71    3.74   3.000e+000           0 -3.000e+000
Pyrite              -9.41  -27.89  -18.48   3.000e+000           0 -3.000e+000
Siderite            -4.10  -14.99  -10.89   3.000e+000           0 -3.000e+000
Smithsonite         -0.23  -10.23  -10.00   3.000e+000           0 -3.000e+000
Sphalerite           0.00  -11.62  -11.62   3.000e+000  3.225e+001  2.925e+001
Zincite(c)          -0.66   10.48   11.14   3.000e+000           0 -3.000e+000
Zincosite           -5.96   -2.95    3.01   3.000e+000           0 -3.000e+000
Zn(OH)2-a           -2.00   10.45   12.45   3.000e+000           0 -3.000e+000
Zn(OH)2-b           -1.30   10.45   11.75   3.000e+000           0 -3.000e+000
Zn(OH)2-c           -1.75   10.45   12.20   3.000e+000           0 -3.000e+000
Zn(OH)2-e           -1.05   10.45   11.50   3.000e+000           0 -3.000e+000
Zn(OH)2-g           -1.26   10.45   11.71   3.000e+000           0 -3.000e+000
Zn2(OH)2SO4          0.00    7.50    7.50   3.000e+000  3.877e+000  8.770e-001
Zn3O(SO4)2         -14.44    4.58   19.02   3.000e+000           0 -3.000e+000
Zn4(OH)6SO4         -0.00   28.40   28.40   3.000e+000  2.708e+000 -2.923e-001
ZnCO3:H2O            0.00  -10.26  -10.26   3.000e+000  1.800e+001  1.500e+001
ZnMetal            -25.87   -0.11   25.76   3.000e+000           0 -3.000e+000
ZnO(a)              -0.83   10.48   11.31   3.000e+000           0 -3.000e+000
ZnS(a)              -2.57  -11.62   -9.05   3.000e+000           0 -3.000e+000
ZnSO4:H2O           -2.41   -2.98   -0.57   3.000e+000           0 -3.000e+000

-----------------------------Solution composition------------------------------

	Elements           Molality       Moles

	C                4.030e-004  3.486e-004
	Ca               4.551e-003  3.937e-003
	Fe               1.907e-006  1.650e-006
	Mg               3.468e+000  3.000e+000
	S                3.664e+000  3.169e+000
	Zn               1.913e-001  1.654e-001

----------------------------Description of solution----------------------------

                                       pH  =   6.131      Charge balance
                                       pe  =  -0.818      Adjusted to redox equilibrium
                        Activity of water  =   0.927
                           Ionic strength  =  2.824e+000
                       Mass of water (kg)  =  8.650e-001
                 Total alkalinity (eq/kg)  =  3.773e-004
                       Total CO2 (mol/kg)  =  4.030e-004
                      Temperature (deg C)  =  25.000
                  Electrical balance (eq)  = -1.117e-010
 Percent error, 100*(Cat-|An|)/(Cat+|An|)  =  -0.00
                               Iterations  =  31
                                  Total H  = 9.602850e+001
                                  Total O  = 6.069197e+001

----------------------------Distribution of species----------------------------

                                                   Log       Log         Log 
   Species                 Molality    Activity  Molality  Activity     Gamma

   H+                    1.030e-006  7.404e-007    -5.987    -6.131    -0.143
   OH-                   9.676e-009  1.253e-008    -8.014    -7.902     0.112
   H2O                   5.551e+001  9.265e-001     1.744    -0.033     0.000
C(-4)           4.385e-023
   CH4                   4.385e-023  8.402e-023   -22.358   -22.076     0.282
C(4)            4.030e-004
   MgHCO3+               1.708e-004  2.211e-004    -3.768    -3.655     0.112
   ZnHCO3+               9.106e-005  1.179e-004    -4.041    -3.929     0.112
   HCO3-                 8.537e-005  5.203e-005    -4.069    -4.284    -0.215
   CO2                   4.879e-005  9.348e-005    -4.312    -4.029     0.282
   ZnCO3                 6.177e-006  1.183e-005    -5.209    -4.927     0.282
   MgCO3                 5.960e-007  1.142e-006    -6.225    -5.942     0.282
   CaHCO3+               2.514e-007  3.255e-007    -6.600    -6.487     0.112
   CO3-2                 2.389e-008  3.295e-009    -7.622    -8.482    -0.860
   CaCO3                 1.413e-009  2.708e-009    -8.850    -8.567     0.282
   FeHCO3+               1.247e-009  1.614e-009    -8.904    -8.792     0.112
   Zn(CO3)2-2            2.968e-010  8.338e-010    -9.528    -9.079     0.449
   FeCO3                 1.280e-011  2.453e-011   -10.893   -10.610     0.282
Ca              4.551e-003
   CaSO4                 3.184e-003  6.101e-003    -2.497    -2.215     0.282
   Ca+2                  1.366e-003  4.905e-004    -2.864    -3.309    -0.445
   CaHCO3+               2.514e-007  3.255e-007    -6.600    -6.487     0.112
   CaHSO4+               2.044e-008  2.646e-008    -7.690    -7.577     0.112
   CaCO3                 1.413e-009  2.708e-009    -8.850    -8.567     0.282
   CaOH+                 7.868e-011  1.019e-010   -10.104    -9.992     0.112
Fe(2)           1.907e-006
   FeSO4                 1.796e-006  3.440e-006    -5.746    -5.463     0.282
   Fe+2                  1.105e-007  3.103e-007    -6.957    -6.508     0.449
   FeHCO3+               1.247e-009  1.614e-009    -8.904    -8.792     0.112
   FeOH+                 9.485e-011  1.228e-010   -10.023    -9.911     0.112
   FeHSO4+               1.293e-011  1.674e-011   -10.888   -10.776     0.112
   FeCO3                 1.280e-011  2.453e-011   -10.893   -10.610     0.282
   Fe(OH)2               6.826e-016  1.308e-015   -15.166   -14.883     0.282
   Fe(OH)3-              4.697e-020  6.081e-020   -19.328   -19.216     0.112
   Fe(HS)2               1.419e-030  2.718e-030   -29.848   -29.566     0.282
   Fe(HS)3-              0.000e+000  0.000e+000   -43.645   -43.532     0.112
Fe(3)           1.295e-014
   Fe(OH)2+              1.166e-014  1.510e-014   -13.933   -13.821     0.112
   Fe(OH)3               1.270e-015  2.434e-015   -14.896   -14.614     0.282
   FeOH+2                1.297e-017  3.644e-017   -16.887   -16.438     0.449
   Fe(SO4)2-             3.247e-018  4.204e-018   -17.488   -17.376     0.112
   FeSO4+                2.381e-018  3.082e-018   -17.623   -17.511     0.112
   Fe(OH)4-              2.145e-018  2.778e-018   -17.668   -17.556     0.112
   Fe+3                  4.414e-022  4.510e-021   -21.355   -20.346     1.009
   FeHSO4+2              2.176e-024  6.112e-024   -23.662   -23.214     0.449
   Fe2(OH)2+4            5.737e-034  3.573e-032   -33.241   -31.447     1.794
   Fe3(OH)4+5            0.000e+000  0.000e+000   -45.752   -42.948     2.804
H(0)            1.750e-014
   H2                    8.748e-015  1.676e-014   -14.058   -13.776     0.282
Mg              3.468e+000
   MgSO4                 2.770e+000  5.307e+000     0.442     0.725     0.282
   Mg+2                  6.981e-001  3.631e-001    -0.156    -0.440    -0.284
   MgHCO3+               1.708e-004  2.211e-004    -3.768    -3.655     0.112
   MgOH+                 1.274e-006  1.650e-006    -5.895    -5.783     0.112
   MgCO3                 5.960e-007  1.142e-006    -6.225    -5.942     0.282
O(0)            0.000e+000
   O2                    0.000e+000  0.000e+000   -65.177   -64.895     0.282
S(-2)           4.127e-016
   H2S                   3.350e-016  6.418e-016   -15.475   -15.193     0.282
   HS-                   7.658e-017  9.914e-017   -16.116   -16.004     0.112
   S5-2                  9.572e-020  3.402e-020   -19.019   -19.468    -0.449
   Zn(HS)2               8.041e-020  1.541e-019   -19.095   -18.812     0.282
   S4-2                  6.654e-020  1.985e-020   -19.177   -19.702    -0.525
   S6-2                  4.347e-020  1.761e-020   -19.362   -19.754    -0.392
   S3-2                  3.000e-023  6.995e-024   -22.523   -23.155    -0.632
   S-2                   5.757e-024  1.617e-023   -23.240   -22.791     0.449
   S2-2                  2.214e-024  3.970e-025   -23.655   -24.401    -0.746
   Fe(HS)2               1.419e-030  2.718e-030   -29.848   -29.566     0.282
   Zn(HS)3-              1.705e-034  2.208e-034   -33.768   -33.656     0.112
   Fe(HS)3-              0.000e+000  0.000e+000   -43.645   -43.532     0.112
S(6)            3.664e+000
   MgSO4                 2.770e+000  5.307e+000     0.442     0.725     0.282
   SO4-2                 6.585e-001  6.234e-002    -0.181    -1.205    -1.024
   ZnSO4                 1.373e-001  2.630e-001    -0.862    -0.580     0.282
   Zn(SO4)2-2            4.744e-002  1.333e-001    -1.324    -0.875     0.449
   CaSO4                 3.184e-003  6.101e-003    -2.497    -2.215     0.282
   HSO4-                 3.466e-006  4.488e-006    -5.460    -5.348     0.112
   FeSO4                 1.796e-006  3.440e-006    -5.746    -5.463     0.282
   CaHSO4+               2.044e-008  2.646e-008    -7.690    -7.577     0.112
   FeHSO4+               1.293e-011  1.674e-011   -10.888   -10.776     0.112
   Fe(SO4)2-             3.247e-018  4.204e-018   -17.488   -17.376     0.112
   FeSO4+                2.381e-018  3.082e-018   -17.623   -17.511     0.112
   FeHSO4+2              2.176e-024  6.112e-024   -23.662   -23.214     0.449
Zn              1.913e-001
   ZnSO4                 1.373e-001  2.630e-001    -0.862    -0.580     0.282
   Zn(SO4)2-2            4.744e-002  1.333e-001    -1.324    -0.875     0.449
   Zn+2                  6.407e-003  1.800e-002    -2.193    -1.745     0.449
   ZnHCO3+               9.106e-005  1.179e-004    -4.041    -3.929     0.112
   ZnOH+                 1.908e-005  2.470e-005    -4.720    -4.607     0.112
   ZnCO3                 6.177e-006  1.183e-005    -5.209    -4.927     0.282
   Zn(OH)2               1.852e-007  3.548e-007    -6.732    -6.450     0.282
   Zn(CO3)2-2            2.968e-010  8.338e-010    -9.528    -9.079     0.449
   Zn(OH)3-              1.085e-012  1.404e-012   -11.965   -11.853     0.112
   Zn(OH)4-2             9.912e-020  2.785e-019   -19.004   -18.555     0.449
   Zn(HS)2               8.041e-020  1.541e-019   -19.095   -18.812     0.282
   Zn(HS)3-              1.705e-034  2.208e-034   -33.768   -33.656     0.112

------------------------------Saturation indices-------------------------------

	Phase               SI log IAP  log KT

	Anhydrite        -0.15   -4.51   -4.36  CaSO4
	Aragonite        -3.46  -11.79   -8.34  CaCO3
	Artinite         -6.87    2.73    9.60  MgCO3:Mg(OH)2:3H2O
	Bianchite        -1.38   -3.15   -1.76  ZnSO4:6H2O
	Brucite          -5.09   11.75   16.84  Mg(OH)2
	Calcite          -3.31  -11.79   -8.48  CaCO3
	CH4(g)          -19.22  -22.08   -2.86  CH4
	CO2(g)           -2.56   -4.03   -1.47  CO2
	Dolomite         -3.62  -20.71  -17.09  CaMg(CO3)2
	Dolomite(d)      -4.17  -20.71  -16.54  CaMg(CO3)2
	Epsomite          0.26   -1.88   -2.14  MgSO4:7H2O
	Fe(OH)3(a)       -6.94   -2.05    4.89  Fe(OH)3
	Fe3(OH)8        -18.64    1.58   20.22  Fe3(OH)8
	FeS(ppt)        -12.47  -16.38   -3.92  FeS
	Goethite         -1.02   -2.02   -1.00  FeOOH
	Goslarite        -1.22   -3.18   -1.96  ZnSO4:7H2O
	Greigite        -41.66  -86.69  -45.03  Fe3S4
	Gypsum            0.00   -4.58   -4.58  CaSO4:2H2O
	H2(g)           -10.63  -13.78   -3.15  H2
	H2O(g)           -1.54   -0.03    1.51  H2O
	H2S(g)          -14.20  -15.19   -1.00  H2S
	Hematite          0.00   -4.01   -4.01  Fe2O3
	Huntite          -8.59  -38.56  -29.97  CaMg3(CO3)4
	Hydromagnesite  -15.30  -24.07   -8.76  Mg5(CO3)4(OH)2:4H2O
	JarositeH       -27.64  -33.03   -5.39  (H3O)Fe3(SO4)2(OH)6
	Mackinawite     -11.73  -16.38   -4.65  FeS
	Maghemite       -10.39   -4.01    6.39  Fe2O3
	Magnesite        -0.89   -8.92   -8.03  MgCO3
	Magnetite        -2.03    1.71    3.74  Fe3O4
	Melanterite      -5.74   -7.95   -2.21  FeSO4:7H2O
	Nesquehonite     -3.40   -9.02   -5.62  MgCO3:3H2O
	O2(g)           -62.00  -64.89   -2.89  O2
	Portlandite     -13.91    8.89   22.80  Ca(OH)2
	Pyrite           -9.41  -27.89  -18.48  FeS2
	Siderite         -4.10  -14.99  -10.89  FeCO3
	Siderite(d)(3)   -4.54  -14.99  -10.45  FeCO3
	Smithsonite      -0.23  -10.23  -10.00  ZnCO3
	Sphalerite        0.00  -11.62  -11.62  ZnS
	Sulfur           -9.40  -24.43  -15.03  S
	Wurtzite         -1.94  -11.62   -9.68  ZnS
	Zincite(c)       -0.66   10.48   11.14  ZnO
	Zincosite        -5.96   -2.95    3.01  ZnSO4
	Zn(OH)2-a        -2.00   10.45   12.45  Zn(OH)2
	Zn(OH)2-b        -1.30   10.45   11.75  Zn(OH)2
	Zn(OH)2-c        -1.75   10.45   12.20  Zn(OH)2
	Zn(OH)2-e        -1.05   10.45   11.50  Zn(OH)2
	Zn(OH)2-g        -1.26   10.45   11.71  Zn(OH)2
	Zn2(OH)2SO4       0.00    7.50    7.50  Zn2(OH)2SO4
	Zn3O(SO4)2      -14.44    4.58   19.02  ZnO:2ZnSO4
	Zn4(OH)6SO4      -0.00   28.40   28.40  Zn4(OH)6SO4
	ZnCO3:H2O         0.00  -10.26  -10.26  ZnCO3:H2O
	ZnMetal         -25.87   -0.11   25.76  Zn
	ZnO(a)           -0.83   10.48   11.31  ZnO
	ZnS(a)           -2.57  -11.62   -9.05  ZnS
	ZnSO4:H2O        -2.41   -2.98   -0.57  ZnSO4:H2O

------------------
End of simulation.
------------------

------------------------------------
Reading input data for simulation 7.
------------------------------------

	SOLUTION 1 Pure water
	        pH      7.0
	        units   mol/kgw
	        pe      4.0
	        temp    25.0
	END
-------------------------------------------
Beginning of initial solution calculations.
-------------------------------------------

Initial solution 1.	Pure water

-----------------------------Solution composition------------------------------

	Elements           Molality       Moles

	Pure water     

----------------------------Description of solution----------------------------

                                       pH  =   7.000    
                                       pe  =   4.000    
                        Activity of water  =   1.000
                           Ionic strength  =  1.001e-007
                       Mass of water (kg)  =  1.000e+000
                 Total alkalinity (eq/kg)  =  1.082e-010
                    Total carbon (mol/kg)  =  0.000e+000
                       Total CO2 (mol/kg)  =  0.000e+000
                      Temperature (deg C)  =  25.000
                  Electrical balance (eq)  = -1.082e-010
 Percent error, 100*(Cat-|An|)/(Cat+|An|)  =  -0.05
                               Iterations  =   0
                                  Total H  = 1.110124e+002
                                  Total O  = 5.550622e+001

----------------------------Distribution of species----------------------------

                                                   Log       Log         Log 
   Species                 Molality    Activity  Molality  Activity     Gamma

   OH-                   1.002e-007  1.001e-007    -6.999    -6.999    -0.000
   H+                    1.001e-007  1.000e-007    -7.000    -7.000    -0.000
   H2O                   5.551e+001  1.000e+000     1.744     0.000     0.000
H(0)            1.416e-025
   H2                    7.079e-026  7.079e-026   -25.150   -25.150     0.000
O(0)            0.000e+000
   O2                    0.000e+000  0.000e+000   -42.080   -42.080     0.000

------------------------------Saturation indices-------------------------------

	Phase               SI log IAP  log KT

	H2(g)           -22.00  -25.15   -3.15  H2
	H2O(g)           -1.51    0.00    1.51  H2O
	O2(g)           -39.19  -42.08   -2.89  O2

------------------
End of simulation.
------------------

------------------------------------
Reading input data for simulation 8.
------------------------------------

	KNOBS
		iterations 200
	PURE_PHASES 3
		Pyrite		0.0	4.0
		Goethite	0.0	4.0
		Siderite	0.0	4.0
		Sphalerite	0.0	4.0
		Smithsonite	0.0	4.0
		Zincite(c)	0.0	4.0
		Calcite		0.0	4.0
		Dolomite	0.0	4.0
		Gypsum		0.0	4.0
		ZnCO3:H2O	0.0	4.0
		Magnetite	0.0	4.0
		Hematite	0.0	4.0
		Greigite	0.0	4.0
		FeS(ppt)	0.0	4.0
		Mackinawite	0.0	4.0
		Zincosite  	0.0	4.0
		Zn(OH)2-a 	0.0	4.0
		Zn(OH)2-b 	0.0	4.0
		Zn(OH)2-c 	0.0	4.0
		Zn(OH)2-e 	0.0	4.0
		Zn(OH)2-g 	0.0	4.0
		Zn2(OH)2SO4	0.0	4.0
		Zn3O(SO4)2 	0.0	4.0
		Zn4(OH)6SO4	0.0	4.0
		ZnMetal    	0.0	4.0
		ZnO(a)     	0.0	4.0
		ZnS(a)     	0.0	4.0
		ZnSO4:H2O  	0.0	4.0
	USE solution 1
	END
-----------------------------------------
Beginning of batch-reaction calculations.
-----------------------------------------

Reaction step 1.

Using solution 1.	Pure water
Using pure phase assemblage 3.	

-------------------------------Phase assemblage--------------------------------

                                                      Moles in assemblage
Phase                  SI log IAP  log KT      Initial       Final       Delta

Calcite             -3.27  -11.75   -8.48   4.000e+000           0 -4.000e+000
Dolomite            -3.36  -20.45  -17.09   4.000e+000           0 -4.000e+000
FeS(ppt)           -12.48  -16.39   -3.92   4.000e+000           0 -4.000e+000
Goethite            -1.03   -2.03   -1.00   4.000e+000           0 -4.000e+000
Greigite           -41.71  -86.74  -45.03   4.000e+000           0 -4.000e+000
Gypsum               0.00   -4.58   -4.58   4.000e+000  1.200e+001  7.997e+000
Hematite             0.00   -4.01   -4.01   4.000e+000  2.600e+001  2.200e+001
Mackinawite        -11.75  -16.39   -4.65   4.000e+000           0 -4.000e+000
Magnetite           -2.03    1.71    3.74   4.000e+000           0 -4.000e+000
Pyrite              -9.44  -27.91  -18.48   4.000e+000           0 -4.000e+000
Siderite            -4.10  -14.99  -10.89   4.000e+000           0 -4.000e+000
Smithsonite         -0.21  -10.21  -10.00   4.000e+000           0 -4.000e+000
Sphalerite           0.00  -11.62  -11.62   4.000e+000  4.300e+001  3.900e+001
Zincite(c)          -0.64   10.50   11.14   4.000e+000           0 -4.000e+000
Zincosite           -5.96   -2.95    3.01   4.000e+000           0 -4.000e+000
Zn(OH)2-a           -2.00   10.45   12.45   4.000e+000           0 -4.000e+000
Zn(OH)2-b           -1.30   10.45   11.75   4.000e+000           0 -4.000e+000
Zn(OH)2-c           -1.75   10.45   12.20   4.000e+000           0 -4.000e+000
Zn(OH)2-e           -1.05   10.45   11.50   4.000e+000           0 -4.000e+000
Zn(OH)2-g           -1.26   10.45   11.71   4.000e+000           0 -4.000e+000
Zn2(OH)2SO4          0.00    7.50    7.50   4.000e+000  5.314e+000  1.314e+000
Zn3O(SO4)2         -14.42    4.60   19.02   4.000e+000           0 -4.000e+000
Zn4(OH)6SO4          0.00   28.40   28.40   4.000e+000  3.562e+000 -4.378e-001
ZnCO3:H2O           -0.00  -10.26  -10.26   4.000e+000  2.400e+001  2.000e+001
ZnMetal            -25.85   -0.10   25.76   4.000e+000           0 -4.000e+000
ZnO(a)              -0.81   10.50   11.31   4.000e+000           0 -4.000e+000
ZnS(a)              -2.57  -11.62   -9.05   4.000e+000           0 -4.000e+000
ZnSO4:H2O           -2.43   -3.00   -0.57   4.000e+000           0 -4.000e+000

-----------------------------Solution composition------------------------------

	Elements           Molality       Moles

	C                4.397e-004  3.606e-004
	Ca               4.080e-003  3.345e-003
	Fe               1.592e-006  1.305e-006
	Mg               4.878e+000  4.000e+000
	S                5.034e+000  4.128e+000
	Zn               1.516e-001  1.243e-001

----------------------------Description of solution----------------------------

                                       pH  =   6.168      Charge balance
                                       pe  =  -0.849      Adjusted to redox equilibrium
                        Activity of water  =   0.901
                           Ionic strength  =  3.363e+000
                       Mass of water (kg)  =  8.200e-001
                 Total alkalinity (eq/kg)  =  4.165e-004
                       Total CO2 (mol/kg)  =  4.397e-004
                      Temperature (deg C)  =  25.000
                  Electrical balance (eq)  = -1.082e-010
 Percent error, 100*(Cat-|An|)/(Cat+|An|)  =  -0.00
                               Iterations  =  69
                                  Total H  = 9.102615e+001
                                  Total O  = 6.202404e+001

----------------------------Distribution of species----------------------------

                                                   Log       Log         Log 
   Species                 Molality    Activity  Molality  Activity     Gamma

   H+                    9.505e-007  6.799e-007    -6.022    -6.168    -0.146
   OH-                   8.676e-009  1.326e-008    -8.062    -7.877     0.184
   H2O                   5.551e+001  9.006e-001     1.744    -0.045     0.000
C(-4)           3.659e-023
   CH4                   3.659e-023  7.938e-023   -22.437   -22.100     0.336
C(4)            4.397e-004
   MgHCO3+               2.257e-004  3.450e-004    -3.646    -3.462     0.184
   HCO3-                 9.134e-005  5.508e-005    -4.039    -4.259    -0.220
   ZnHCO3+               7.286e-005  1.114e-004    -4.138    -3.953     0.184
   CO2                   4.309e-005  9.348e-005    -4.366    -4.029     0.336
   ZnCO3                 5.612e-006  1.218e-005    -5.251    -4.915     0.336
   MgCO3                 8.947e-007  1.941e-006    -6.048    -5.712     0.336
   CaHCO3+               2.129e-007  3.254e-007    -6.672    -6.488     0.184
   CO3-2                 2.874e-008  3.799e-009    -7.542    -8.420    -0.879
   CaCO3                 1.359e-009  2.948e-009    -8.867    -8.530     0.336
   FeHCO3+               9.699e-010  1.482e-009    -9.013    -8.829     0.184
   Zn(CO3)2-2            1.811e-010  9.889e-010    -9.742    -9.005     0.737
   FeCO3                 1.131e-011  2.453e-011   -10.947   -10.610     0.336
Ca              4.080e-003
   CaSO4                 2.977e-003  6.457e-003    -2.526    -2.190     0.336
   Ca+2                  1.103e-003  4.633e-004    -2.958    -3.334    -0.377
   CaHCO3+               2.129e-007  3.254e-007    -6.672    -6.488     0.184
   CaHSO4+               1.682e-008  2.572e-008    -7.774    -7.590     0.184
   CaCO3                 1.359e-009  2.948e-009    -8.867    -8.530     0.336
   CaOH+                 6.663e-011  1.018e-010   -10.176    -9.992     0.184
Fe(2)           1.592e-006
   FeSO4                 1.541e-006  3.344e-006    -5.812    -5.476     0.336
   Fe+2                  4.931e-008  2.692e-007    -7.307    -6.570     0.737
   FeHCO3+               9.699e-010  1.482e-009    -9.013    -8.829     0.184
   FeOH+                 7.377e-011  1.128e-010   -10.132    -9.948     0.184
   FeCO3                 1.131e-011  2.453e-011   -10.947   -10.610     0.336
   FeHSO4+               9.776e-012  1.494e-011   -11.010   -10.826     0.184
   Fe(OH)2               5.860e-016  1.271e-015   -15.232   -14.896     0.336
   Fe(OH)3-              4.093e-020  6.257e-020   -19.388   -19.204     0.184
   Fe(HS)2               1.151e-030  2.496e-030   -29.939   -29.603     0.336
   Fe(HS)3-              0.000e+000  0.000e+000   -43.741   -43.557     0.184
Fe(3)           1.003e-014
   Fe(OH)2+              8.941e-015  1.367e-014   -14.049   -13.864     0.184
   Fe(OH)3               1.075e-015  2.332e-015   -14.969   -14.632     0.336
   FeOH+2                5.708e-018  3.116e-017   -17.244   -16.506     0.737
   Fe(SO4)2-             2.790e-018  4.265e-018   -17.554   -17.370     0.184
   Fe(OH)4-              1.843e-018  2.818e-018   -17.734   -17.550     0.184
   FeSO4+                1.826e-018  2.791e-018   -17.739   -17.554     0.184
   Fe+3                  7.997e-023  3.643e-021   -22.097   -20.439     1.659
   FeHSO4+2              9.306e-025  5.080e-024   -24.031   -23.294     0.737
   Fe2(OH)2+4            2.942e-035  2.613e-032   -34.531   -31.583     2.948
   Fe3(OH)4+5            0.000e+000  0.000e+000   -47.734   -43.127     4.607
H(0)            1.502e-014
   H2                    7.510e-015  1.629e-014   -14.124   -13.788     0.336
Mg              4.878e+000
   MgSO4                 4.041e+000  8.767e+000     0.607     0.943     0.336
   Mg+2                  8.366e-001  5.354e-001    -0.077    -0.271    -0.194
   MgHCO3+               2.257e-004  3.450e-004    -3.646    -3.462     0.184
   MgOH+                 1.684e-006  2.575e-006    -5.774    -5.589     0.184
   MgCO3                 8.947e-007  1.941e-006    -6.048    -5.712     0.336
O(0)            0.000e+000
   O2                    0.000e+000  0.000e+000   -65.231   -64.895     0.336
S(-2)           3.475e-016
   H2S                   2.795e-016  6.064e-016   -15.554   -15.217     0.336
   HS-                   6.674e-017  1.020e-016   -16.176   -15.991     0.184
   S5-2                  1.085e-019  3.813e-020   -18.965   -19.419    -0.454
   S4-2                  7.574e-020  2.224e-020   -19.121   -19.653    -0.532
   Zn(HS)2               6.710e-020  1.456e-019   -19.173   -18.837     0.336
   S6-2                  4.914e-020  1.973e-020   -19.309   -19.705    -0.396
   S3-2                  3.440e-023  7.838e-024   -22.463   -23.106    -0.642
   S-2                   3.320e-024  1.812e-023   -23.479   -22.742     0.737
   S2-2                  2.562e-024  4.448e-025   -23.591   -24.352    -0.760
   Fe(HS)2               1.151e-030  2.496e-030   -29.939   -29.603     0.336
   Zn(HS)3-              1.404e-034  2.146e-034   -33.853   -33.668     0.184
   Fe(HS)3-              0.000e+000  0.000e+000   -43.741   -43.557     0.184
S(6)            5.034e+000
   MgSO4                 4.041e+000  8.767e+000     0.607     0.943     0.336
   SO4-2                 8.134e-001  6.986e-002    -0.090    -1.156    -1.066
   ZnSO4                 1.212e-001  2.630e-001    -0.916    -0.580     0.336
   Zn(SO4)2-2            2.736e-002  1.494e-001    -1.563    -0.826     0.737
   CaSO4                 2.977e-003  6.457e-003    -2.526    -2.190     0.336
   HSO4-                 3.021e-006  4.618e-006    -5.520    -5.336     0.184
   FeSO4                 1.541e-006  3.344e-006    -5.812    -5.476     0.336
   CaHSO4+               1.682e-008  2.572e-008    -7.774    -7.590     0.184
   FeHSO4+               9.776e-012  1.494e-011   -11.010   -10.826     0.184
   Fe(SO4)2-             2.790e-018  4.265e-018   -17.554   -17.370     0.184
   FeSO4+                1.826e-018  2.791e-018   -17.739   -17.554     0.184
   FeHSO4+2              9.306e-025  5.080e-024   -24.031   -23.294     0.737
Zn              1.516e-001
   ZnSO4                 1.212e-001  2.630e-001    -0.916    -0.580     0.336
   Zn(SO4)2-2            2.736e-002  1.494e-001    -1.563    -0.826     0.737
   Zn+2                  2.942e-003  1.606e-002    -2.531    -1.794     0.737
   ZnHCO3+               7.286e-005  1.114e-004    -4.138    -3.953     0.184
   ZnOH+                 1.526e-005  2.333e-005    -4.816    -4.632     0.184
   ZnCO3                 5.612e-006  1.218e-005    -5.251    -4.915     0.336
   Zn(OH)2               1.636e-007  3.548e-007    -6.786    -6.450     0.336
   Zn(CO3)2-2            1.811e-010  9.889e-010    -9.742    -9.005     0.737
   Zn(OH)3-              9.724e-013  1.486e-012   -12.012   -11.828     0.184
   Zn(HS)2               6.710e-020  1.456e-019   -19.173   -18.837     0.336
   Zn(OH)4-2             5.716e-020  3.120e-019   -19.243   -18.506     0.737
   Zn(HS)3-              1.404e-034  2.146e-034   -33.853   -33.668     0.184

------------------------------Saturation indices-------------------------------

	Phase               SI log IAP  log KT

	Anhydrite        -0.13   -4.49   -4.36  CaSO4
	Aragonite        -3.42  -11.75   -8.34  CaCO3
	Artinite         -6.46    3.14    9.60  MgCO3:Mg(OH)2:3H2O
	Bianchite        -1.46   -3.22   -1.76  ZnSO4:6H2O
	Brucite          -4.87   11.97   16.84  Mg(OH)2
	Calcite          -3.27  -11.75   -8.48  CaCO3
	CH4(g)          -19.24  -22.10   -2.86  CH4
	CO2(g)           -2.56   -4.03   -1.47  CO2
	Dolomite         -3.36  -20.45  -17.09  CaMg(CO3)2
	Dolomite(d)      -3.91  -20.45  -16.54  CaMg(CO3)2
	Epsomite          0.39   -1.75   -2.14  MgSO4:7H2O
	Fe(OH)3(a)       -6.96   -2.07    4.89  Fe(OH)3
	Fe3(OH)8        -18.69    1.53   20.22  Fe3(OH)8
	FeS(ppt)        -12.48  -16.39   -3.92  FeS
	Goethite         -1.03   -2.03   -1.00  FeOOH
	Goslarite        -1.31   -3.27   -1.96  ZnSO4:7H2O
	Greigite        -41.71  -86.74  -45.03  Fe3S4
	Gypsum            0.00   -4.58   -4.58  CaSO4:2H2O
	H2(g)           -10.64  -13.79   -3.15  H2
	H2O(g)           -1.56   -0.05    1.51  H2O
	H2S(g)          -14.22  -15.22   -1.00  H2S
	Hematite          0.00   -4.01   -4.01  Fe2O3
	Huntite          -7.86  -37.83  -29.97  CaMg3(CO3)4
	Hydromagnesite  -14.21  -22.98   -8.76  Mg5(CO3)4(OH)2:4H2O
	JarositeH       -27.72  -33.11   -5.39  (H3O)Fe3(SO4)2(OH)6
	Mackinawite     -11.75  -16.39   -4.65  FeS
	Maghemite       -10.39   -4.01    6.39  Fe2O3
	Magnesite        -0.66   -8.69   -8.03  MgCO3
	Magnetite        -2.03    1.71    3.74  Fe3O4
	Melanterite      -5.83   -8.04   -2.21  FeSO4:7H2O
	Nesquehonite     -3.21   -8.83   -5.62  MgCO3:3H2O
	O2(g)           -62.00  -64.89   -2.89  O2
	Portlandite     -13.89    8.91   22.80  Ca(OH)2
	Pyrite           -9.44  -27.91  -18.48  FeS2
	Siderite         -4.10  -14.99  -10.89  FeCO3
	Siderite(d)(3)   -4.54  -14.99  -10.45  FeCO3
	Smithsonite      -0.21  -10.21  -10.00  ZnCO3
	Sphalerite        0.00  -11.62  -11.62  ZnS
	Sulfur           -9.41  -24.44  -15.03  S
	Wurtzite         -1.94  -11.62   -9.68  ZnS
	Zincite(c)       -0.64   10.50   11.14  ZnO
	Zincosite        -5.96   -2.95    3.01  ZnSO4
	Zn(OH)2-a        -2.00   10.45   12.45  Zn(OH)2
	Zn(OH)2-b        -1.30   10.45   11.75  Zn(OH)2
	Zn(OH)2-c        -1.75   10.45   12.20  Zn(OH)2
	Zn(OH)2-e        -1.05   10.45   11.50  Zn(OH)2
	Zn(OH)2-g        -1.26   10.45   11.71  Zn(OH)2
	Zn2(OH)2SO4       0.00    7.50    7.50  Zn2(OH)2SO4
	Zn3O(SO4)2      -14.42    4.60   19.02  ZnO:2ZnSO4
	Zn4(OH)6SO4       0.00   28.40   28.40  Zn4(OH)6SO4
	ZnCO3:H2O        -0.00  -10.26  -10.26  ZnCO3:H2O
	ZnMetal         -25.85   -0.10   25.76  Zn
	ZnO(a)           -0.81   10.50   11.31  ZnO
	ZnS(a)           -2.57  -11.62   -9.05  ZnS
	ZnSO4:H2O        -2.43   -3.00   -0.57  ZnSO4:H2O

------------------
End of simulation.
------------------

------------------------------------
Reading input data for simulation 9.
------------------------------------

	SOLUTION 1 Pure water
	        pH      7.0
	        units   mol/kgw
	        pe      4.0
	        temp    25.0
	END
-------------------------------------------
Beginning of initial solution calculations.
-------------------------------------------

Initial solution 1.	Pure water

-----------------------------Solution composition------------------------------

	Elements           Molality       Moles

	Pure water     

----------------------------Description of solution----------------------------

                                       pH  =   7.000    
                                       pe  =   4.000    
                        Activity of water  =   1.000
                           Ionic strength  =  1.001e-007
                       Mass of water (kg)  =  1.000e+000
                 Total alkalinity (eq/kg)  =  1.082e-010
                    Total carbon (mol/kg)  =  0.000e+000
                       Total CO2 (mol/kg)  =  0.000e+000
                      Temperature (deg C)  =  25.000
                  Electrical balance (eq)  = -1.082e-010
 Percent error, 100*(Cat-|An|)/(Cat+|An|)  =  -0.05
                               Iterations  =   0
                                  Total H  = 1.110124e+002
                                  Total O  = 5.550622e+001

----------------------------Distribution of species----------------------------

                                                   Log       Log         Log 
   Species                 Molality    Activity  Molality  Activity     Gamma

   OH-                   1.002e-007  1.001e-007    -6.999    -6.999    -0.000
   H+                    1.001e-007  1.000e-007    -7.000    -7.000    -0.000
   H2O                   5.551e+001  1.000e+000     1.744     0.000     0.000
H(0)            1.416e-025
   H2                    7.079e-026  7.079e-026   -25.150   -25.150     0.000
O(0)            0.000e+000
   O2                    0.000e+000  0.000e+000   -42.080   -42.080     0.000

------------------------------Saturation indices-------------------------------

	Phase               SI log IAP  log KT

	H2(g)           -22.00  -25.15   -3.15  H2
	H2O(g)           -1.51    0.00    1.51  H2O
	O2(g)           -39.19  -42.08   -2.89  O2

------------------
End of simulation.
------------------

-------------------------------------
Reading input data for simulation 10.
-------------------------------------

	PURE_PHASES 3
		Pyrite		0.0	5.0
		Goethite	0.0	5.0
		Siderite	0.0	5.0
		Sphalerite	0.0	5.0
		Smithsonite	0.0	5.0
		Zincite(c)	0.0	5.0
		Calcite		0.0	5.0
		Dolomite	0.0	5.0
		Gypsum		0.0	5.0
		ZnCO3:H2O	0.0	5.0
		Magnetite	0.0	5.0
		Hematite	0.0	5.0
		Greigite	0.0	5.0
		FeS(ppt)	0.0	5.0
		Mackinawite	0.0	5.0
		Zincosite  	0.0	5.0
		Zn(OH)2-a 	0.0	5.0
		Zn(OH)2-b 	0.0	5.0
		Zn(OH)2-c 	0.0	5.0
		Zn(OH)2-e 	0.0	5.0
		Zn(OH)2-g 	0.0	5.0
		Zn2(OH)2SO4	0.0	5.0
		Zn3O(SO4)2 	0.0	5.0
		Zn4(OH)6SO4	0.0	5.0
		ZnMetal    	0.0	5.0
		ZnO(a)     	0.0	5.0
		ZnS(a)     	0.0	5.0
		ZnSO4:H2O  	0.0	5.0
	USE solution 1
	END
-----------------------------------------
Beginning of batch-reaction calculations.
-----------------------------------------

Reaction step 1.

Using solution 1.	Pure water
Using pure phase assemblage 3.	

-------------------------------Phase assemblage--------------------------------

                                                      Moles in assemblage
Phase                  SI log IAP  log KT      Initial       Final       Delta

Calcite             -3.23  -11.71   -8.48   5.000e+000           0 -5.000e+000
Dolomite            -3.12  -20.21  -17.09   5.000e+000           0 -5.000e+000
FeS(ppt)           -12.49  -16.41   -3.92   5.000e+000           0 -5.000e+000
Goethite            -1.03   -2.03   -1.00   5.000e+000           0 -5.000e+000
Greigite           -41.76  -86.80  -45.03   5.000e+000           0 -5.000e+000
Gypsum               0.00   -4.58   -4.58   5.000e+000  1.500e+001  9.997e+000
Hematite             0.00   -4.01   -4.01   5.000e+000  3.250e+001  2.750e+001
Mackinawite        -11.76  -16.41   -4.65   5.000e+000           0 -5.000e+000
Magnetite           -2.03    1.71    3.74   5.000e+000           0 -5.000e+000
Pyrite              -9.46  -27.94  -18.48   5.000e+000           0 -5.000e+000
Siderite            -4.10  -14.99  -10.89   5.000e+000           0 -5.000e+000
Smithsonite         -0.20  -10.20  -10.00   5.000e+000           0 -5.000e+000
Sphalerite           0.00  -11.62  -11.62   5.000e+000  5.375e+001  4.875e+001
Zincite(c)          -0.63   10.51   11.14   5.000e+000           0 -5.000e+000
Zincosite           -5.96   -2.95    3.01   5.000e+000           0 -5.000e+000
Zn(OH)2-a           -2.00   10.45   12.45   5.000e+000           0 -5.000e+000
Zn(OH)2-b           -1.30   10.45   11.75   5.000e+000           0 -5.000e+000
Zn(OH)2-c           -1.75   10.45   12.20   5.000e+000           0 -5.000e+000
Zn(OH)2-e           -1.05   10.45   11.50   5.000e+000           0 -5.000e+000
Zn(OH)2-g           -1.26   10.45   11.71   5.000e+000           0 -5.000e+000
Zn2(OH)2SO4          0.00    7.50    7.50   5.000e+000  6.730e+000  1.730e+000
Zn3O(SO4)2         -14.41    4.61   19.02   5.000e+000           0 -5.000e+000
Zn4(OH)6SO4          0.00   28.40   28.40   5.000e+000  4.423e+000 -5.767e-001
ZnCO3:H2O            0.00  -10.26  -10.26   5.000e+000  3.000e+001  2.500e+001
ZnMetal            -25.84   -0.08   25.76   5.000e+000           0 -5.000e+000
ZnO(a)              -0.80   10.51   11.31   5.000e+000           0 -5.000e+000
ZnS(a)              -2.57  -11.62   -9.05   5.000e+000           0 -5.000e+000
ZnSO4:H2O           -2.44   -3.01   -0.57   5.000e+000           0 -5.000e+000

-----------------------------Solution composition------------------------------

	Elements           Molality       Moles

	C                4.827e-004  3.740e-004
	Ca               3.753e-003  2.909e-003
	Fe               1.350e-006  1.046e-006
	Mg               6.452e+000  5.000e+000
	S                6.581e+000  5.099e+000
	Zn               1.246e-001  9.657e-002

----------------------------Description of solution----------------------------

                                       pH  =   6.198      Charge balance
                                       pe  =  -0.872      Adjusted to redox equilibrium
                        Activity of water  =   0.872
                           Ionic strength  =  3.878e+000
                       Mass of water (kg)  =  7.749e-001
                 Total alkalinity (eq/kg)  =  4.623e-004
                       Total CO2 (mol/kg)  =  4.827e-004
                      Temperature (deg C)  =  25.000
                  Electrical balance (eq)  = -1.145e-009
 Percent error, 100*(Cat-|An|)/(Cat+|An|)  =  -0.00
                               Iterations  =  42
                                  Total H  = 8.602442e+001
                                  Total O  = 6.341035e+001

----------------------------Distribution of species----------------------------

                                                   Log       Log         Log 
   Species                 Molality    Activity  Molality  Activity     Gamma

   H+                    8.897e-007  6.341e-007    -6.051    -6.198    -0.147
   OH-                   7.658e-009  1.377e-008    -8.116    -7.861     0.255
   H2O                   5.551e+001  8.719e-001     1.744    -0.060     0.000
C(-4)           3.047e-023
   CH4                   3.047e-023  7.441e-023   -22.516   -22.128     0.388
C(4)            4.827e-004
   MgHCO3+               2.825e-004  5.078e-004    -3.549    -3.294     0.255
   HCO3-                 9.560e-005  5.717e-005    -4.020    -4.243    -0.223
   ZnHCO3+               5.968e-005  1.073e-004    -4.224    -3.969     0.255
   CO2                   3.828e-005  9.348e-005    -4.417    -4.029     0.388
   ZnCO3                 5.150e-006  1.258e-005    -5.288    -4.900     0.388
   MgCO3                 1.254e-006  3.063e-006    -5.902    -5.514     0.388
   CaHCO3+               1.861e-007  3.345e-007    -6.730    -6.476     0.255
   CO3-2                 3.307e-008  4.228e-009    -7.481    -8.374    -0.893
   CaCO3                 1.330e-009  3.249e-009    -8.876    -8.488     0.388
   FeHCO3+               7.692e-010  1.383e-009    -9.114    -8.859     0.255
   Zn(CO3)2-2            1.089e-010  1.137e-009    -9.963    -8.944     1.019
   FeCO3                 1.005e-011  2.453e-011   -10.998   -10.610     0.388
Ca              3.753e-003
   CaSO4                 2.821e-003  6.889e-003    -2.550    -2.162     0.388
   Ca+2                  9.323e-004  4.587e-004    -3.030    -3.338    -0.308
   CaHCO3+               1.861e-007  3.345e-007    -6.730    -6.476     0.255
   CaHSO4+               1.424e-008  2.559e-008    -7.847    -7.592     0.255
   CaCO3                 1.330e-009  3.249e-009    -8.876    -8.488     0.388
   CaOH+                 5.823e-011  1.047e-010   -10.235    -9.980     0.255
Fe(2)           1.350e-006
   FeSO4                 1.326e-006  3.237e-006    -5.878    -5.490     0.388
   Fe+2                  2.316e-008  2.419e-007    -7.635    -6.616     1.019
   FeHCO3+               7.692e-010  1.383e-009    -9.114    -8.859     0.255
   FeOH+                 5.850e-011  1.052e-010   -10.233    -9.978     0.255
   FeCO3                 1.005e-011  2.453e-011   -10.998   -10.610     0.388
   FeHSO4+               7.506e-012  1.349e-011   -11.125   -10.870     0.255
   Fe(OH)2               5.040e-016  1.231e-015   -15.298   -14.910     0.388
   Fe(OH)3-              3.498e-020  6.288e-020   -19.456   -19.202     0.255
   Fe(HS)2               9.276e-031  2.265e-030   -30.033   -29.645     0.388
   Fe(HS)3-              0.000e+000  0.000e+000   -43.852   -43.597     0.255
Fe(3)           7.895e-015
   Fe(OH)2+              6.978e-015  1.254e-014   -14.156   -13.902     0.255
   Fe(OH)3               9.098e-016  2.222e-015   -15.041   -14.653     0.388
   FeOH+2                2.638e-018  2.755e-017   -17.579   -16.560     1.019
   Fe(SO4)2-             2.346e-018  4.217e-018   -17.630   -17.375     0.255
   Fe(OH)4-              1.550e-018  2.786e-018   -17.810   -17.555     0.255
   FeSO4+                1.425e-018  2.561e-018   -17.846   -17.592     0.255
   Fe+3                  1.583e-023  3.103e-021   -22.800   -20.508     2.292
   FeHSO4+2              4.165e-025  4.348e-024   -24.380   -23.362     1.019
   Fe2(OH)2+4            1.719e-036  2.043e-032   -35.765   -31.690     4.075
   Fe3(OH)4+5            0.000e+000  0.000e+000   -49.639   -43.271     6.367
H(0)            1.292e-014
   H2                    6.459e-015  1.577e-014   -14.190   -13.802     0.388
Mg              6.452e+000
   MgSO4                 5.485e+000  1.340e+001     0.739     1.127     0.388
   Mg+2                  9.669e-001  7.592e-001    -0.015    -0.120    -0.105
   MgHCO3+               2.825e-004  5.078e-004    -3.549    -3.294     0.255
   MgOH+                 2.108e-006  3.790e-006    -5.676    -5.421     0.255
   MgCO3                 1.254e-006  3.063e-006    -5.902    -5.514     0.388
O(0)            0.000e+000
   O2                    0.000e+000  0.000e+000   -65.283   -64.895     0.388
S(-2)           2.911e-016
   H2S                   2.327e-016  5.684e-016   -15.633   -15.245     0.388
   HS-                   5.703e-017  1.025e-016   -16.244   -15.989     0.255
   S5-2                  1.179e-019  4.108e-020   -18.928   -19.386    -0.458
[...]
	Dolomite         -2.18  -19.27  -17.09  CaMg(CO3)2
	Dolomite(d)      -2.73  -19.27  -16.54  CaMg(CO3)2
	Epsomite          0.48   -1.66   -2.14  MgSO4:7H2O
	Fe(OH)3(a)       -7.11   -2.22    4.89  Fe(OH)3
	Fe3(OH)8        -19.09    1.13   20.22  Fe3(OH)8
	FeS(ppt)        -12.58  -16.49   -3.92  FeS
	Goethite         -1.08   -2.08   -1.00  FeOOH
	Goslarite        -2.00   -3.96   -1.96  ZnSO4:7H2O
	Greigite        -42.10  -87.14  -45.03  Fe3S4
	Gypsum           -0.00   -4.58   -4.58  CaSO4:2H2O
	H2(g)           -10.74  -13.89   -3.15  H2
	H2O(g)           -1.65   -0.14    1.51  H2O
	H2S(g)          -14.42  -15.42   -1.00  H2S
	Hematite         -0.00   -4.01   -4.01  Fe2O3
	Huntite          -4.94  -34.91  -29.97  CaMg3(CO3)4
	Hydromagnesite  -10.34  -19.10   -8.76  Mg5(CO3)4(OH)2:4H2O
	JarositeH       -28.36  -33.75   -5.39  (H3O)Fe3(SO4)2(OH)6
	Mackinawite     -11.84  -16.49   -4.65  FeS
	Maghemite       -10.39   -4.01    6.39  Fe2O3
	Magnesite         0.21   -7.82   -8.03  MgCO3
	Magnetite        -2.03    1.71    3.74  Fe3O4
	Melanterite      -6.63   -8.84   -2.21  FeSO4:7H2O
	Nesquehonite     -2.63   -8.25   -5.62  MgCO3:3H2O
	O2(g)           -62.00  -64.89   -2.89  O2
	Portlandite     -13.69    9.11   22.80  Ca(OH)2
	Pyrite           -9.63  -28.11  -18.48  FeS2
	Siderite         -4.10  -14.99  -10.89  FeCO3
	Siderite(d)(3)   -4.54  -14.99  -10.45  FeCO3
	Smithsonite      -0.12  -10.12  -10.00  ZnCO3
	Sphalerite        0.00  -11.62  -11.62  ZnS
	Sulfur           -9.51  -24.54  -15.03  S
	Wurtzite         -1.94  -11.62   -9.68  ZnS
	Zincite(c)       -0.55   10.59   11.14  ZnO
	Zincosite        -5.96   -2.95    3.01  ZnSO4
	Zn(OH)2-a        -2.00   10.45   12.45  Zn(OH)2
	Zn(OH)2-b        -1.30   10.45   11.75  Zn(OH)2
	Zn(OH)2-c        -1.75   10.45   12.20  Zn(OH)2
	Zn(OH)2-e        -1.05   10.45   11.50  Zn(OH)2
	Zn(OH)2-g        -1.26   10.45   11.71  Zn(OH)2
	Zn2(OH)2SO4      -0.00    7.50    7.50  Zn2(OH)2SO4
	Zn3O(SO4)2      -14.33    4.69   19.02  ZnO:2ZnSO4
	Zn4(OH)6SO4      -0.00   28.40   28.40  Zn4(OH)6SO4
	ZnCO3:H2O        -0.00  -10.26  -10.26  ZnCO3:H2O
	ZnMetal         -25.75    0.00   25.76  Zn
	ZnO(a)           -0.72   10.59   11.31  ZnO
	ZnS(a)           -2.57  -11.62   -9.05  ZnS
	ZnSO4:H2O        -2.52   -3.09   -0.57  ZnSO4:H2O

------------------
End of simulation.
------------------

-------------------------------------
Reading input data for simulation 19.
-------------------------------------

	SOLUTION 1 Pure water
	        pH      7.0
	        units   mol/kgw
	        pe      4.0
	        temp    25.0
	END
-------------------------------------------
Beginning of initial solution calculations.
-------------------------------------------

Initial solution 1.	Pure water

-----------------------------Solution composition------------------------------

	Elements           Molality       Moles

	Pure water     

----------------------------Description of solution----------------------------

                                       pH  =   7.000    
                                       pe  =   4.000    
                        Activity of water  =   1.000
                           Ionic strength  =  1.001e-007
                       Mass of water (kg)  =  1.000e+000
                 Total alkalinity (eq/kg)  =  1.082e-010
                    Total carbon (mol/kg)  =  0.000e+000
                       Total CO2 (mol/kg)  =  0.000e+000
                      Temperature (deg C)  =  25.000
                  Electrical balance (eq)  = -1.082e-010
 Percent error, 100*(Cat-|An|)/(Cat+|An|)  =  -0.05
                               Iterations  =   0
                                  Total H  = 1.110124e+002
                                  Total O  = 5.550622e+001

----------------------------Distribution of species----------------------------

                                                   Log       Log         Log 
   Species                 Molality    Activity  Molality  Activity     Gamma

   OH-                   1.002e-007  1.001e-007    -6.999    -6.999    -0.000
   H+                    1.001e-007  1.000e-007    -7.000    -7.000    -0.000
   H2O                   5.551e+001  1.000e+000     1.744     0.000     0.000
H(0)            1.416e-025
   H2                    7.079e-026  7.079e-026   -25.150   -25.150     0.000
O(0)            0.000e+000
   O2                    0.000e+000  0.000e+000   -42.080   -42.080     0.000

------------------------------Saturation indices-------------------------------

	Phase               SI log IAP  log KT

	H2(g)           -22.00  -25.15   -3.15  H2
	H2O(g)           -1.51    0.00    1.51  H2O
	O2(g)           -39.19  -42.08   -2.89  O2

------------------
End of simulation.
------------------

-------------------------------------
Reading input data for simulation 20.
-------------------------------------

	PURE_PHASES 3
		Pyrite		0.0	10.0
		Goethite	0.0	10.0
		Siderite	0.0	10.0
		Sphalerite	0.0	10.0
		Smithsonite	0.0	10.0
		Zincite(c)	0.0	10.0
		Calcite		0.0	10.0
		Dolomite	0.0	10.0
		Gypsum		0.0	10.0
		ZnCO3:H2O	0.0	10.0
		Magnetite	0.0	10.0
		Hematite	0.0	10.0
		Greigite	0.0	10.0
		FeS(ppt)	0.0	10.0
		Mackinawite	0.0	10.0
		Zincosite  	0.0	10.0
		Zn(OH)2-a 	0.0	10.0
		Zn(OH)2-b 	0.0	10.0
		Zn(OH)2-c 	0.0	10.0
		Zn(OH)2-e 	0.0	10.0
		Zn(OH)2-g 	0.0	10.0
		Zn2(OH)2SO4	0.0	10.0
		Zn3O(SO4)2 	0.0	10.0
		Zn4(OH)6SO4	0.0	10.0
		ZnMetal    	0.0	10.0
		ZnO(a)     	0.0	10.0
		ZnS(a)     	0.0	10.0
		ZnSO4:H2O  	0.0	10.0
	USE solution 1
	END
-----------------------------------------
Beginning of batch-reaction calculations.
-----------------------------------------

Reaction step 1.

WARNING: Mass of water is less than 1e-10 kilogram.
The aqueous phase may not be stable relative to given masses of minerals.
WARNING: Numerical method failed with this set of convergence parameters.

WARNING: Trying smaller step size, pe step size 10, 5 ... 

WARNING: Maximum iterations exceeded, 400

WARNING: Numerical method failed with this set of convergence parameters.

WARNING: Trying reduced tolerance 1e-016 ...

Using solution 1.	Pure water
Using pure phase assemblage 3.	

-------------------------------Phase assemblage--------------------------------

                                                      Moles in assemblage
Phase                  SI log IAP  log KT      Initial       Final       Delta

Calcite             -2.88  -11.36   -8.48   1.000e+001           0 -1.000e+001
Dolomite            -1.92  -19.01  -17.09   1.000e+001           0 -1.000e+001
FeS(ppt)           -12.61  -16.53   -3.92   1.000e+001           0 -1.000e+001
Goethite            -1.09   -2.09   -1.00   1.000e+001           0 -1.000e+001
Greigite           -42.24  -87.27  -45.03   1.000e+001           0 -1.000e+001
Gypsum               0.00   -4.58   -4.58   1.000e+001  3.000e+001  2.000e+001
Hematite            -0.00   -4.01   -4.01   1.000e+001  6.500e+001  5.500e+001
Mackinawite        -11.88  -16.53   -4.65   1.000e+001           0 -1.000e+001
Magnetite           -2.03    1.71    3.74   1.000e+001           0 -1.000e+001
Pyrite              -9.70  -28.18  -18.48   1.000e+001           0 -1.000e+001
Siderite            -4.10  -14.99  -10.89   1.000e+001           0 -1.000e+001
Smithsonite         -0.08  -10.08  -10.00   1.000e+001           0 -1.000e+001
Sphalerite          -0.00  -11.62  -11.62   1.000e+001  1.075e+002  9.750e+001
Zincite(c)          -0.51   10.63   11.14   1.000e+001           0 -1.000e+001
Zincosite           -5.96   -2.95    3.01   1.000e+001           0 -1.000e+001
Zn(OH)2-a           -2.00   10.45   12.45   1.000e+001           0 -1.000e+001
Zn(OH)2-b           -1.30   10.45   11.75   1.000e+001           0 -1.000e+001
Zn(OH)2-c           -1.75   10.45   12.20   1.000e+001           0 -1.000e+001
Zn(OH)2-e           -1.05   10.45   11.50   1.000e+001           0 -1.000e+001
Zn(OH)2-g           -1.26   10.45   11.71   1.000e+001           0 -1.000e+001
Zn2(OH)2SO4          0.00    7.50    7.50   1.000e+001  1.370e+001  3.699e+000
Zn3O(SO4)2         -14.29    4.73   19.02   1.000e+001           0 -1.000e+001
Zn4(OH)6SO4          0.00   28.40   28.40   1.000e+001  8.767e+000 -1.233e+000
ZnCO3:H2O            0.00  -10.26  -10.26   1.000e+001  6.000e+001  5.000e+001
ZnMetal            -25.72    0.04   25.76   1.000e+001           0 -1.000e+001
ZnO(a)              -0.68   10.63   11.31   1.000e+001           0 -1.000e+001
ZnS(a)              -2.57  -11.62   -9.05   1.000e+001           0 -1.000e+001
ZnSO4:H2O           -2.56   -3.13   -0.57   1.000e+001           0 -1.000e+001

-----------------------------Solution composition------------------------------

	Elements           Molality       Moles

	C                7.868e-004  4.325e-004
	Ca               3.403e-003  1.870e-003
	Fe               5.767e-007  3.170e-007
	Mg               1.819e+001  1.000e+001
	S                1.826e+001  1.004e+001
	Zn               6.239e-002  3.429e-002

----------------------------Description of solution----------------------------

                                       pH  =   6.352      Charge balance
                                       pe  =  -0.966      Adjusted to redox equilibrium
                        Activity of water  =   0.663
                           Ionic strength  =  6.308e+000
                       Mass of water (kg)  =  5.497e-001
                 Total alkalinity (eq/kg)  =  7.823e-004
                       Total CO2 (mol/kg)  =  7.868e-004
                      Temperature (deg C)  =  25.000
                  Electrical balance (eq)  = -1.086e-010
 Percent error, 100*(Cat-|An|)/(Cat+|An|)  =  -0.00
                               Iterations  = 278
                                  Total H  = 6.102034e+001
                                  Total O  = 7.065504e+001

----------------------------Distribution of species----------------------------

                                                   Log       Log         Log 
   Species                 Molality    Activity  Molality  Activity     Gamma

   H+                    6.310e-007  4.448e-007    -6.200    -6.352    -0.152
   OH-                   3.751e-009  1.492e-008    -8.426    -7.826     0.600
   H2O                   5.551e+001  6.628e-001     1.744    -0.179     0.000
C(-4)           1.006e-023
   CH4                   1.006e-023  4.300e-023   -22.997   -22.367     0.631
C(4)            7.868e-004
   MgHCO3+               6.246e-004  2.484e-003    -3.204    -2.605     0.600
   HCO3-                 1.063e-004  6.196e-005    -3.973    -4.208    -0.235
   ZnHCO3+               2.489e-005  9.899e-005    -4.604    -4.004     0.600
   CO2                   2.187e-005  9.348e-005    -4.660    -4.029     0.631
   MgCO3                 4.998e-006  2.136e-005    -5.301    -4.670     0.631
   ZnCO3                 3.871e-006  1.654e-005    -5.412    -4.781     0.631
   CaHCO3+               1.343e-007  5.340e-007    -6.872    -6.272     0.600
   CO3-2                 5.669e-008  6.533e-009    -7.246    -8.185    -0.938
   CaCO3                 1.731e-009  7.396e-009    -8.762    -8.131     0.631
   FeHCO3+               2.439e-010  9.698e-010    -9.613    -9.013     0.600
   Zn(CO3)2-2            9.238e-012  2.311e-009   -11.034    -8.636     2.398
   FeCO3                 5.740e-012  2.453e-011   -11.241   -10.610     0.631
Ca              3.403e-003
   CaSO4                 2.789e-003  1.192e-002    -2.554    -1.924     0.631
   Ca+2                  6.134e-004  6.757e-004    -3.212    -3.170     0.042
   CaHCO3+               1.343e-007  5.340e-007    -6.872    -6.272     0.600
   CaHSO4+               7.810e-009  3.106e-008    -8.107    -7.508     0.600
   CaCO3                 1.731e-009  7.396e-009    -8.762    -8.131     0.631
   CaOH+                 4.202e-011  1.671e-010   -10.376    -9.777     0.600
Fe(2)           5.767e-007
   FeSO4                 5.758e-007  2.461e-006    -6.240    -5.609     0.631
   Fe+2                  6.257e-010  1.565e-007    -9.204    -6.805     2.398
   FeHCO3+               2.439e-010  9.698e-010    -9.613    -9.013     0.600
   FeOH+                 1.855e-011  7.376e-011   -10.732   -10.132     0.600
   FeCO3                 5.740e-012  2.453e-011   -11.241   -10.610     0.631
   FeHSO4+               1.809e-012  7.194e-012   -11.743   -11.143     0.600
   Fe(OH)2               2.189e-016  9.356e-016   -15.660   -15.029     0.631
   Fe(OH)3-              1.303e-020  5.180e-020   -19.885   -19.286     0.600
   Fe(HS)2               2.328e-031  9.951e-031   -30.633   -30.002     0.631
   Fe(HS)3-              0.000e+000  0.000e+000   -44.638   -44.038     0.600
Fe(3)           2.275e-015
   Fe(OH)2+              1.929e-015  7.670e-015   -14.715   -14.115     0.600
   Fe(OH)3               3.446e-016  1.473e-015   -15.463   -14.832     0.631
   Fe(SO4)2-             7.617e-019  3.029e-018   -18.118   -17.519     0.600
   Fe(OH)4-              5.033e-019  2.001e-018   -18.298   -17.699     0.600
   FeSO4+                3.938e-019  1.566e-018   -18.405   -17.805     0.600
   FeOH+2                6.214e-020  1.554e-017   -19.207   -16.808     2.398
   FeHSO4+2              7.457e-027  1.865e-024   -26.127   -23.729     2.398
   Fe+3                  6.492e-027  1.615e-021   -26.188   -20.792     5.396
   Fe2(OH)2+4            0.000e+000  6.503e-033   -41.780   -32.187     9.593
   Fe3(OH)4+5            0.000e+000  0.000e+000   -58.971   -43.982    14.989
H(0)            5.611e-015
   H2                    2.805e-015  1.199e-014   -14.552   -13.921     0.631
Mg              1.819e+001
   MgSO4                 1.662e+001  7.101e+001     1.221     1.851     0.631
   Mg+2                  1.576e+000  3.426e+000     0.198     0.535     0.337
   MgHCO3+               6.246e-004  2.484e-003    -3.204    -2.605     0.600
   MgCO3                 4.998e-006  2.136e-005    -5.301    -4.670     0.631
   MgOH+                 4.661e-006  1.854e-005    -5.331    -4.732     0.600
O(0)            0.000e+000
   O2                    0.000e+000  0.000e+000   -65.526   -64.895     0.631
S(-2)           9.962e-017
   H2S                   7.685e-017  3.284e-016   -16.114   -15.484     0.631
   HS-                   2.124e-017  8.446e-017   -16.673   -16.073     0.600
   S5-2                  1.423e-019  4.825e-020   -18.847   -19.316    -0.470
   S4-2                  1.007e-019  2.815e-020   -18.997   -19.550    -0.553
   S6-2                  6.389e-020  2.498e-020   -19.195   -19.602    -0.408
   Zn(HS)2               1.845e-020  7.884e-020   -19.734   -19.103     0.631
   S3-2                  4.678e-023  9.920e-024   -22.330   -23.003    -0.674
   S2-2                  3.590e-024  5.630e-025   -23.445   -24.249    -0.805
   S-2                   9.170e-026  2.294e-023   -25.038   -22.639     2.398
   Fe(HS)2               2.328e-031  9.951e-031   -30.633   -30.002     0.631
   Zn(HS)3-              2.420e-035  9.625e-035   -34.616   -34.017     0.600
   Fe(HS)3-              0.000e+000  0.000e+000   -44.638   -44.038     0.600
S(6)            1.826e+001
   MgSO4                 1.662e+001  7.101e+001     1.221     1.851     0.631
   SO4-2                 1.576e+000  8.842e-002     0.198    -1.053    -1.251
   ZnSO4                 6.155e-002  2.630e-001    -1.211    -0.580     0.631
   CaSO4                 2.789e-003  1.192e-002    -2.554    -1.924     0.631
   Zn(SO4)2-2            7.557e-004  1.890e-001    -3.122    -0.723     2.398
   HSO4-                 9.614e-007  3.823e-006    -6.017    -5.418     0.600
   FeSO4                 5.758e-007  2.461e-006    -6.240    -5.609     0.631
   CaHSO4+               7.810e-009  3.106e-008    -8.107    -7.508     0.600
   FeHSO4+               1.809e-012  7.194e-012   -11.743   -11.143     0.600
   Fe(SO4)2-             7.617e-019  3.029e-018   -18.118   -17.519     0.600
   FeSO4+                3.938e-019  1.566e-018   -18.405   -17.805     0.600
   FeHSO4+2              7.457e-027  1.865e-024   -26.127   -23.729     2.398
Zn              6.239e-002
   ZnSO4                 6.155e-002  2.630e-001    -1.211    -0.580     0.631
   Zn(SO4)2-2            7.557e-004  1.890e-001    -3.122    -0.723     2.398
   Zn+2                  5.073e-005  1.269e-002    -4.295    -1.897     2.398
   ZnHCO3+               2.489e-005  9.899e-005    -4.604    -4.004     0.600
   ZnOH+                 5.214e-006  2.074e-005    -5.283    -4.683     0.600
   ZnCO3                 3.871e-006  1.654e-005    -5.412    -4.781     0.631
   Zn(OH)2               8.302e-008  3.548e-007    -7.081    -6.450     0.631
   Zn(CO3)2-2            9.238e-012  2.311e-009   -11.034    -8.636     2.398
   Zn(OH)3-              4.205e-013  1.672e-012   -12.376   -11.777     0.600
   Zn(HS)2               1.845e-020  7.884e-020   -19.734   -19.103     0.631
   Zn(OH)4-2             1.579e-021  3.949e-019   -20.802   -18.403     2.398
   Zn(HS)3-              2.420e-035  9.625e-035   -34.616   -34.017     0.600

------------------------------Saturation indices-------------------------------

	Phase               SI log IAP  log KT

	Anhydrite         0.14   -4.22   -4.36  CaSO4
	Aragonite        -3.02  -11.36   -8.34  CaCO3
	Artinite         -4.90    4.70    9.60  MgCO3:Mg(OH)2:3H2O
	Bianchite        -2.26   -4.02   -1.76  ZnSO4:6H2O
	Brucite          -3.96   12.88   16.84  Mg(OH)2
	Calcite          -2.88  -11.36   -8.48  CaCO3
	CH4(g)          -19.51  -22.37   -2.86  CH4
	CO2(g)           -2.56   -4.03   -1.47  CO2
	Dolomite         -1.92  -19.01  -17.09  CaMg(CO3)2
	Dolomite(d)      -2.47  -19.01  -16.54  CaMg(CO3)2
	Epsomite          0.37   -1.77   -2.14  MgSO4:7H2O
	Fe(OH)3(a)       -7.16   -2.27    4.89  Fe(OH)3
	Fe3(OH)8        -19.22    1.00   20.22  Fe3(OH)8
	FeS(ppt)        -12.61  -16.53   -3.92  FeS
	Goethite         -1.09   -2.09   -1.00  FeOOH
	Goslarite        -2.24   -4.20   -1.96  ZnSO4:7H2O
	Greigite        -42.24  -87.27  -45.03  Fe3S4
	Gypsum            0.00   -4.58   -4.58  CaSO4:2H2O
	H2(g)           -10.77  -13.92   -3.15  H2
	H2O(g)           -1.69   -0.18    1.51  H2O
	H2S(g)          -14.49  -15.48   -1.00  H2S
	Hematite         -0.00   -4.01   -4.01  Fe2O3
	Huntite          -4.34  -34.31  -29.97  CaMg3(CO3)4
	Hydromagnesite   -9.67  -18.43   -8.76  Mg5(CO3)4(OH)2:4H2O
	JarositeH       -28.58  -33.97   -5.39  (H3O)Fe3(SO4)2(OH)6
	Mackinawite     -11.88  -16.53   -4.65  FeS
	Maghemite       -10.39   -4.01    6.39  Fe2O3
	Magnesite         0.38   -7.65   -8.03  MgCO3
	Magnetite        -2.03    1.71    3.74  Fe3O4
	Melanterite      -6.90   -9.11   -2.21  FeSO4:7H2O
	Nesquehonite     -2.56   -8.19   -5.62  MgCO3:3H2O
	O2(g)           -62.00  -64.89   -2.89  O2
	Portlandite     -13.62    9.18   22.80  Ca(OH)2
	Pyrite           -9.70  -28.18  -18.48  FeS2
	Siderite         -4.10  -14.99  -10.89  FeCO3
	Siderite(d)(3)   -4.54  -14.99  -10.45  FeCO3
	Smithsonite      -0.08  -10.08  -10.00  ZnCO3
	Sphalerite       -0.00  -11.62  -11.62  ZnS
	Sulfur           -9.55  -24.57  -15.03  S
	Wurtzite         -1.94  -11.62   -9.68  ZnS
	Zincite(c)       -0.51   10.63   11.14  ZnO
	Zincosite        -5.96   -2.95    3.01  ZnSO4
	Zn(OH)2-a        -2.00   10.45   12.45  Zn(OH)2
	Zn(OH)2-b        -1.30   10.45   11.75  Zn(OH)2
	Zn(OH)2-c        -1.75   10.45   12.20  Zn(OH)2
	Zn(OH)2-e        -1.05   10.45   11.50  Zn(OH)2
	Zn(OH)2-g        -1.26   10.45   11.71  Zn(OH)2
	Zn2(OH)2SO4       0.00    7.50    7.50  Zn2(OH)2SO4
	Zn3O(SO4)2      -14.29    4.73   19.02  ZnO:2ZnSO4
	Zn4(OH)6SO4       0.00   28.40   28.40  Zn4(OH)6SO4
	ZnCO3:H2O         0.00  -10.26  -10.26  ZnCO3:H2O
	ZnMetal         -25.72    0.04   25.76  Zn
	ZnO(a)           -0.68   10.63   11.31  ZnO
	ZnS(a)           -2.57  -11.62   -9.05  ZnS
	ZnSO4:H2O        -2.56   -3.13   -0.57  ZnSO4:H2O

------------------
End of simulation.
------------------

-------------------------------------
Reading input data for simulation 21.
-------------------------------------

-----------
End of run.
-----------

