   Input file: count_database_species
  Output file: count_database_species.out
Database file: ../database/sit.dat

------------------
Reading data base.
------------------

	SOLUTION_MASTER_SPECIES
	SIT
	SOLUTION_SPECIES
	PHASES
------------------------------------
Reading input data for simulation 1.
------------------------------------

	DATABASE ../database/sit.dat
	PRINT
	 user_print TRUE
	SOLUTION
	He 1
	Li 1
	Be 1
	B 1
	C 1
	N 1
	F 1
	Ne 1
	Na 1
	Mg 1
	Al 1
	Si 1
	P 1
	S 1
	Cl 1
	Ar 1
	K 1
	Ca 1
	Sc 1
	Ti 1
	V 1
	Cr 1
	Mn 1
	Fe 1
	Co 1
	Ni 1
	Cu 1
	Zn 1
	Ga 1
	Ge 1
	As 1
	Se 1
	Br 1
	Kr 1
	Rb 1
	Sr 1
	Y 1
	Zr 1
	Nb 1
	Mo 1
	Tc 1
	Ru 1
	Rh 1
	Pd 1
	Ag 1
	Cd 1
	In 1
	Sn 1
	Sb 1
	Te 1
	I 1
	Xe 1
	Cs 1
	Ba 1
	Hf 1
	Ta 1
	W 1
	Re 1
	Os 1
	Ir 1
	Pt 1
	Au 1
	Hg 1
	Tl 1
	Pb 1
	Bi 1
	Po 1
	At 1
	Rn 1
	Fr 1
	Ra 1
	La 1
	Ce 1
	Pr 1
	Nd 1
	Pm 1
	Sm 1
	Eu 1
	Gd 1
	Tb 1
	Dy 1
	Ho 1
	Er 1
	Tm 1
	Yb 1
	Lu 1
	Ac 1
	Th 1
	Pa 1
	U 1
	Np 1
	Pu 1
	Am 1
	Cm 1
	Bk 1
	Cf 1
	Es 1
	Fm 1
	Md 1
	No 1
	Lr 1
	USER_PRINT
	start
	10 PRINT"Summary of inorganic species (elements)"
	20 totel = SYS("elements", ne, ne$, te$, ve)
	30 npm = ne
	40 FOR i = 1 TO ne
	50 tots = SYS(ne$(i), ns, ns$, ts$, vs)
	60 IF(INSTR(ne$(i), "(") <> 0) THEN 70
	70 IF(INSTR(ne$(i), "(") = 0) THEN 90
	80 npm = npm-1
	90 NEXT i
	100 PRINT"number of primary master species", CHR$(09), "=", CHR$(09), npm
	110 PRINT"number of secondary master species", CHR$(09), "=", CHR$(09), ne-npm
	120 totph = SYS("phases", np, np$, tp$, vp)
	130 ngas = 0
	140 FOR ii = 1 TO np
	150 element$ = np$(ii)
	160 totphs = SYS(element$, nph, nph$, tph$, vph)
	170 g = INSTR(element$, "(g)")+INSTR(element$, "(G)")
	180 IF(g = 0) THEN 200
	190 ngas = ngas+1
	200 NEXT ii
	210 PRINT"number of minerals", CHR$(09), "=", CHR$(09), np-ngas
	220 PRINT"number of gases", CHR$(09), "=", CHR$(09), ngas
	230 totaq = SYS("aq", naq, naq$, taq$, vaq)
	240 PRINT"number of aqueous species", CHR$(09), "=", CHR$(09), naq
	end
	SELECTED_OUTPUT
	reset FALSE
	USER_PUNCH
	headings primary_master_species secondary_master_species minerals gases aqueous_species
	start
	10 totel = SYS("elements", ne, ne$, te$, ve)
	20 npm = ne
	30 FOR i = 1 TO ne
	40 tots = SYS(ne$(i), ns, ns$, ts$, vs)
	50 IF(INSTR(ne$(i), "(") <> 0) THEN 60
	60 IF(INSTR(ne$(i), "(") = 0) THEN 80
	70 npm = npm-1
	80 NEXT i
	90 PUNCH npm
	100 PUNCH ne-npm
	110 totph = SYS("phases", np, np$, tp$, vp)
	120 ngas = 0
	130 FOR ii = 1 TO np
	140 element$ = np$(ii)
	150 totphs = SYS(element$, nph, nph$, tph$, vph)
	160 g = INSTR(element$, "(g)")+INSTR(element$, "(G)")
	170 IF(g = 0) THEN 190
	180 ngas = ngas+1
	190 NEXT ii
	200 PUNCH np-ngas
	210 PUNCH ngas
	220 totaq = SYS("aq", naq, naq$, taq$, vaq)
	230 PUNCH naq
	end
	END
WARNING: Could not find element in database, Ac.
	Concentration is set to zero.
WARNING: Could not find element in database, Ar.
	Concentration is set to zero.
WARNING: Could not find element in database, At.
	Concentration is set to zero.
WARNING: Could not find element in database, Au.
	Concentration is set to zero.
WARNING: Could not find element in database, Be.
	Concentration is set to zero.
WARNING: Could not find element in database, Bi.
	Concentration is set to zero.
WARNING: Could not find element in database, Bk.
	Concentration is set to zero.
WARNING: Could not find element in database, Ce.
	Concentration is set to zero.
WARNING: Could not find element in database, Cf.
	Concentration is set to zero.
WARNING: Could not find element in database, Dy.
	Concentration is set to zero.
WARNING: Could not find element in database, Er.
	Concentration is set to zero.
WARNING: Could not find element in database, Es.
	Concentration is set to zero.
WARNING: Could not find element in database, Fm.
	Concentration is set to zero.
WARNING: Could not find element in database, Fr.
	Concentration is set to zero.
WARNING: Could not find element in database, Ga.
	Concentration is set to zero.
WARNING: Could not find element in database, Gd.
	Concentration is set to zero.
WARNING: Could not find element in database, Ge.
	Concentration is set to zero.
WARNING: Could not find element in database, He.
	Concentration is set to zero.
WARNING: Could not find element in database, In.
	Concentration is set to zero.
WARNING: Could not find element in database, Ir.
	Concentration is set to zero.
WARNING: Could not find element in database, Kr.
	Concentration is set to zero.
WARNING: Could not find element in database, La.
	Concentration is set to zero.
WARNING: Could not find element in database, Lr.
	Concentration is set to zero.
WARNING: Could not find element in database, Lu.
	Concentration is set to zero.
WARNING: Could not find element in database, Md.
	Concentration is set to zero.
WARNING: Could not find element in database, Nd.
	Concentration is set to zero.
WARNING: Could not find element in database, Ne.
	Concentration is set to zero.
WARNING: Could not find element in database, No.
	Concentration is set to zero.
WARNING: Could not find element in database, Os.
	Concentration is set to zero.
WARNING: Could not find element in database, Pm.
	Concentration is set to zero.
WARNING: Could not find element in database, Po.
	Concentration is set to zero.
WARNING: Could not find element in database, Pr.
	Concentration is set to zero.
WARNING: Could not find element in database, Pt.
	Concentration is set to zero.
WARNING: Could not find element in database, Re.
	Concentration is set to zero.
WARNING: Could not find element in database, Rh.
	Concentration is set to zero.
WARNING: Could not find element in database, Rn.
	Concentration is set to zero.
WARNING: Could not find element in database, Ru.
	Concentration is set to zero.
WARNING: Could not find element in database, Sc.
	Concentration is set to zero.
WARNING: Could not find element in database, Ta.
	Concentration is set to zero.
WARNING: Could not find element in database, Tb.
	Concentration is set to zero.
WARNING: Could not find element in database, Te.
	Concentration is set to zero.
WARNING: Could not find element in database, Ti.
	Concentration is set to zero.
WARNING: Could not find element in database, Tl.
	Concentration is set to zero.
WARNING: Could not find element in database, Tm.
	Concentration is set to zero.
WARNING: Could not find element in database, V.
	Concentration is set to zero.
WARNING: Could not find element in database, W.
	Concentration is set to zero.
WARNING: Could not find element in database, Xe.
	Concentration is set to zero.
WARNING: Could not find element in database, Y.
	Concentration is set to zero.
WARNING: Could not find element in database, Yb.
	Concentration is set to zero.
-------------------------------------------
Beginning of initial solution calculations.
-------------------------------------------

Initial solution 1.	

----------------------------------User print-----------------------------------

Summary of inorganic species (elements) 
number of primary master species 	 = 	           54 
number of secondary master species 	 = 	           55 
number of minerals 	 = 	          775 
number of gases 	 = 	           10 
number of aqueous species 	 = 	         1013 

-----------------------------Solution composition------------------------------

	Elements           Molality       Moles

	Ag                1.000e-03   1.000e-03
	Al                1.000e-03   1.000e-03
	Am                1.000e-03   1.000e-03
	As                1.000e-03   1.000e-03
	B                 1.000e-03   1.000e-03
	Ba                1.000e-03   1.000e-03
	Br                1.000e-03   1.000e-03
	C                 1.000e-03   1.000e-03
	Ca                1.000e-03   1.000e-03
	Cd                1.000e-03   1.000e-03
	Cl                1.000e-03   1.000e-03
	Cm                1.000e-03   1.000e-03
	Co                1.000e-03   1.000e-03
	Cr                1.000e-03   1.000e-03
	Cs                1.000e-03   1.000e-03
	Cu                1.000e-03   1.000e-03
	Eu                1.000e-03   1.000e-03
	F                 1.000e-03   1.000e-03
	Fe                1.000e-03   1.000e-03
	Hf                1.000e-03   1.000e-03
	Hg                1.000e-03   1.000e-03
	Ho                1.000e-03   1.000e-03
	I                 1.000e-03   1.000e-03
	K                 1.000e-03   1.000e-03
	Li                1.000e-03   1.000e-03
	Mg                1.000e-03   1.000e-03
	Mn                1.000e-03   1.000e-03
	Mo                1.000e-03   1.000e-03
	N                 1.000e-03   1.000e-03
	Na                1.000e-03   1.000e-03
	Nb                1.000e-03   1.000e-03
	Ni                1.000e-03   1.000e-03
	Np                1.000e-03   1.000e-03
	P                 1.000e-03   1.000e-03
	Pa                1.000e-03   1.000e-03
	Pb                1.000e-03   1.000e-03
	Pd                1.000e-03   1.000e-03
	Pu                1.000e-03   1.000e-03
	Ra                1.000e-03   1.000e-03
	Rb                1.000e-03   1.000e-03
	S                 1.000e-03   1.000e-03
	Sb                1.000e-03   1.000e-03
	Se                1.000e-03   1.000e-03
	Si                1.000e-03   1.000e-03
	Sm                1.000e-03   1.000e-03
	Sn                1.000e-03   1.000e-03
	Sr                1.000e-03   1.000e-03
	Tc                1.000e-03   1.000e-03
	Th                1.000e-03   1.000e-03
	U                 1.000e-03   1.000e-03
	Zn                1.000e-03   1.000e-03
	Zr                1.000e-03   1.000e-03

----------------------------Description of solution----------------------------

                                       pH  =   7.000    
                                       pe  =   4.000    
                        Activity of water  =   0.999
                           Ionic strength  =   5.046e-02
                       Mass of water (kg)  =   1.000e+00
                 Total alkalinity (eq/kg)  =   3.586e-02
                       Total CO2 (mol/kg)  =   1.000e-03
                      Temperature (deg C)  =  25.000
                  Electrical balance (eq)  =   3.177e-02
 Percent error, 100*(Cat-|An|)/(Cat+|An|)  =  60.50
                               Iterations  =  27
                         Gamma iterations  =   5
                      Osmotic coefficient  =   0.86130
                                  Total H  = 1.110739e+02
                                  Total O  = 5.558835e+01

----------------------------Distribution of species----------------------------

                                                   Log       Log         Log 
   Species                 Molality    Activity  Molality  Activity     Gamma

   H+                     1.218e-07   1.000e-07    -6.914    -7.000    -0.086
   OH-                    1.218e-07   9.994e-08    -6.915    -7.000    -0.086
   H2O                    5.551e+01   9.994e-01     1.744    -0.000     0.000
Ag               1.000e-03
   AgI                    3.726e-04   3.726e-04    -3.429    -3.429     0.000
   AgI2-                  3.102e-04   2.545e-04    -3.508    -3.594    -0.086
   AgBr                   1.592e-04   1.592e-04    -3.798    -3.798     0.000
   AgBr2-                 1.030e-04   8.456e-05    -3.987    -4.073    -0.086
   AgCl                   2.678e-05   2.678e-05    -4.572    -4.572     0.000
   Ag+                    2.304e-05   1.891e-05    -4.637    -4.723    -0.086
   AgCl2-                 2.480e-06   2.036e-06    -5.605    -5.691    -0.086
   AgBr3-2                2.430e-06   1.102e-06    -5.614    -5.958    -0.343
   Ag(SO4)-               1.137e-07   9.334e-08    -6.944    -7.030    -0.086
   AgI3-2                 1.105e-07   5.015e-08    -6.956    -7.300    -0.343
   AgCl3-2                3.572e-09   1.621e-09    -8.447    -8.790    -0.343
   Ag(OH)                 1.890e-10   1.890e-10    -9.723    -9.723     0.000
   AgCO3-                 6.058e-11   4.972e-11   -10.218   -10.303    -0.086
   AgCl4-3                1.210e-11   2.045e-12   -10.917   -11.689    -0.772
   Ag(SeO3)-              1.228e-13   1.008e-13   -12.911   -12.997    -0.086
   Ag(OH)2-               2.302e-15   1.889e-15   -14.638   -14.724    -0.086
   Ag(CO3)2-3             4.662e-19   7.875e-20   -18.331   -19.104    -0.772
   AgNO3                  1.208e-26   1.208e-26   -25.918   -25.918     0.000
   Ag(SO3)-               1.515e-29   1.515e-29   -28.820   -28.820     0.000
   Ag(HS)                 0.000e+00   0.000e+00   -55.669   -55.669     0.000
   Ag(S2O3)-              0.000e+00   0.000e+00   -66.305   -66.305     0.000
   Ag(HS)2-               0.000e+00   0.000e+00  -116.264  -116.264     0.000
   Ag(S2O3)2-3            0.000e+00   0.000e+00  -132.707  -132.707     0.000
Al               1.000e-03
   Al(OH)4-               4.997e-04   4.101e-04    -3.301    -3.387    -0.086
   Al(OH)2F               3.661e-04   3.661e-04    -3.436    -3.436     0.000
   Al(OH)3                1.157e-04   1.157e-04    -3.937    -3.937     0.000
   Al(OH)2+               9.754e-06   8.007e-06    -5.011    -5.097    -0.086
   AlF2+                  4.467e-06   3.666e-06    -5.350    -5.436    -0.086
   Al(OH)2F2-             1.444e-06   1.185e-06    -5.840    -5.926    -0.086
   AlF+2                  1.251e-06   5.677e-07    -5.903    -6.246    -0.343
   AlF3                   8.024e-07   8.024e-07    -6.096    -6.096     0.000
   Al(OH)+2               7.532e-07   3.418e-07    -6.123    -6.466    -0.343
   NaAl(OH)4              5.838e-08   5.838e-08    -7.234    -7.234     0.000
   Al+3                   1.803e-08   3.048e-09    -7.744    -8.516    -0.772
   KAl(OH)4               1.501e-08   1.501e-08    -7.824    -7.824     0.000
   AlH3SiO4+2             7.839e-09   3.556e-09    -8.106    -8.449    -0.343
   AlF4-                  4.574e-09   3.754e-09    -8.340    -8.425    -0.086
   Al(SO4)+               1.130e-09   9.275e-10    -8.947    -9.033    -0.086
   AlOHF2                 1.879e-11   1.879e-11   -10.726   -10.726     0.000
   Al(IO3)+2              0.000e+00   0.000e+00   -56.902   -56.902     0.000
   Al(IO3)2+              0.000e+00   0.000e+00  -105.909  -105.909     0.000
Am(2)            0.000e+00
   Am+2                   0.000e+00   0.000e+00   -46.944   -46.944     0.000
Am(3)            1.000e-03
   Am+3                   5.106e-04   8.629e-05    -3.292    -4.064    -0.772
   AmOSi(OH)3+2           2.607e-04   1.183e-04    -3.584    -3.927    -0.343
   Am(OH)+2               1.199e-04   5.441e-05    -3.921    -4.264    -0.343
   Am(CO3)+               4.481e-05   3.678e-05    -4.349    -4.434    -0.086
   Am(SO4)+               4.314e-05   3.542e-05    -4.365    -4.451    -0.086
   AmF+2                  9.314e-06   4.227e-06    -5.031    -5.374    -0.343
   Am(OH)2+               8.346e-06   6.845e-06    -5.079    -5.165    -0.086
   Am(HCO3)+2             2.747e-06   1.246e-06    -5.561    -5.904    -0.343
   AmCl+2                 2.512e-07   1.140e-07    -6.600    -6.943    -0.343
   AmPO4                  5.425e-08   5.425e-08    -7.266    -7.266     0.000
   AmF3                   4.230e-08   4.230e-08    -7.374    -7.374     0.000
   AmF2+                  2.523e-08   2.071e-08    -7.598    -7.684    -0.086
   Am(SO4)2-              2.230e-08   1.830e-08    -7.652    -7.737    -0.086
   Am(CO3)2-              1.206e-08   9.895e-09    -7.919    -8.005    -0.086
   Am(HPO4)+              6.922e-09   5.681e-09    -8.160    -8.246    -0.086
   Am(OH)3                5.434e-10   5.434e-10    -9.265    -9.265     0.000
   Am(H2PO4)+2            6.878e-11   3.122e-11   -10.163   -10.506    -0.343
   AmCl2+                 1.105e-11   9.075e-12   -10.956   -11.042    -0.086
   Ca(Am(OH)3)+2          4.235e-13   1.921e-13   -12.373   -12.716    -0.343
   Am(CO3)3-3             3.146e-14   5.310e-15   -13.502   -14.275    -0.773
   Am(PO4)2-3             2.484e-14   4.196e-15   -13.605   -14.377    -0.772
   Am(HPO4)2-             6.740e-15   5.532e-15   -14.171   -14.257    -0.086
   Am(OH)4-               2.092e-17   1.717e-17   -16.679   -16.765    -0.086
   Ca2(Am(OH)4)+3         6.370e-20   1.076e-20   -19.196   -19.968    -0.772
   Am(NO3)+2              5.063e-24   2.298e-24   -23.296   -23.639    -0.343
   Ca3(Am(OH)6)+3         1.513e-33   1.513e-33   -32.820   -32.820     0.000
   Am(CO3)5-6             0.000e+00   0.000e+00   -46.515   -46.515     0.000
Am(4)            0.000e+00
   Am+4                   0.000e+00   0.000e+00   -44.274   -44.274     0.000
Am(5)            3.679e-27
   AmO2+                  3.676e-27   3.676e-27   -26.435   -26.435     0.000
   AmO2(CO3)-             2.484e-30   2.484e-30   -29.605   -29.605     0.000
   AmO2OH                 1.841e-31   1.841e-31   -30.735   -30.735     0.000
   AmO2(OH)2-             9.222e-37   9.222e-37   -36.035   -36.035     0.000
   AmO2(CO3)2-3           5.307e-37   5.307e-37   -36.275   -36.275     0.000
   AmO2(CO3)3-5           0.000e+00   0.000e+00   -46.145   -46.145     0.000
Am(6)            0.000e+00
   AmO2+2                 0.000e+00   0.000e+00   -49.415   -49.415     0.000
As               1.000e-03
   H(AsO4)-2              6.804e-04   3.087e-04    -3.167    -3.510    -0.343
   H2(AsO4)-              2.215e-04   1.818e-04    -3.655    -3.740    -0.086
   NiHAsO4                9.802e-05   9.802e-05    -4.009    -4.009     0.000
   AsO4-3                 4.591e-08   7.754e-09    -7.338    -8.110    -0.772
   H3(AsO4)               3.308e-09   3.308e-09    -8.480    -8.480     0.000
   H3(AsO3)               8.125e-12   8.125e-12   -11.090   -11.090     0.000
   H2(AsO3)-              6.104e-14   5.010e-14   -13.214   -13.300    -0.086
   H(AsO3)-2              1.079e-17   4.896e-18   -16.967   -17.310    -0.343
B                1.000e-03
   Cu(B(OH)4)+            7.481e-04   6.140e-04    -3.126    -3.212    -0.086
   B(OH)3                 1.005e-04   1.005e-04    -3.998    -3.998     0.000
   Cu(B(OH)4)2            7.415e-05   7.415e-05    -4.130    -4.130     0.000
   Pb(B(OH)4)+            2.253e-06   1.849e-06    -5.647    -5.733    -0.086
   B(OH)4-                7.044e-07   5.780e-07    -6.152    -6.238    -0.086
   Cu(B(OH)4)3-           2.741e-08   2.249e-08    -7.562    -7.648    -0.086
   CaB(OH)4+              1.978e-08   1.623e-08    -7.704    -7.790    -0.086
   MgB(OH)4+              1.250e-08   1.026e-08    -7.903    -7.989    -0.086
   SrB(OH)4+              1.112e-08   9.127e-09    -7.954    -8.040    -0.086
   BaB(OH)4+              9.429e-09   7.738e-09    -8.026    -8.111    -0.086
   BF(OH)3-               1.197e-09   9.825e-10    -8.922    -9.008    -0.086
   NaB(OH)4               3.761e-10   3.761e-10    -9.425    -9.425     0.000
   Fe(B(OH)4)2+           2.383e-10   1.956e-10    -9.623    -9.709    -0.086
   Fe(B(OH)4)+2           8.179e-11   3.711e-11   -10.087   -10.431    -0.343
   HB2O4-                 6.037e-11   4.954e-11   -10.219   -10.305    -0.086
   B3O5-                  1.877e-12   1.541e-12   -11.726   -11.812    -0.086
   Pb(B(OH)4)3-           7.187e-13   5.899e-13   -12.143   -12.229    -0.086
   BF2(OH)2-              2.504e-13   2.055e-13   -12.601   -12.687    -0.086
   B4O7-2                 1.966e-17   8.918e-18   -16.706   -17.050    -0.343
   BF3(OH)-               5.358e-19   4.397e-19   -18.271   -18.357    -0.086
   BF4-                   4.260e-24   3.496e-24   -23.371   -23.456    -0.086
Ba               1.000e-03
   Ba+2                   9.548e-04   4.332e-04    -3.020    -3.363    -0.343
   Ba(SO4)                4.467e-05   4.467e-05    -4.350    -4.350     0.000
   BaCl+                  4.608e-07   3.782e-07    -6.337    -6.422    -0.086
   Ba(HCO3)+              5.784e-08   4.747e-08    -7.238    -7.324    -0.086
   BaF+                   2.586e-08   2.122e-08    -7.587    -7.673    -0.086
   BaB(OH)4+              9.429e-09   7.738e-09    -8.026    -8.111    -0.086
   Ba(CO3)                1.192e-09   1.192e-09    -8.924    -8.924     0.000
   Ba(OH)+                1.787e-10   1.467e-10    -9.748    -9.834    -0.086
   Ba(NO3)+               3.220e-25   2.643e-25   -24.492   -24.578    -0.086
Br               1.000e-03
   Br-                    5.901e-04   4.844e-04    -3.229    -3.315    -0.086
   AgBr                   1.592e-04   1.592e-04    -3.798    -3.798     0.000
   AgBr2-                 1.030e-04   8.456e-05    -3.987    -4.073    -0.086
   CdBr+                  3.514e-05   2.884e-05    -4.454    -4.540    -0.086
   AgBr3-2                2.430e-06   1.102e-06    -5.614    -5.958    -0.343
   PbBr+                  5.970e-07   4.899e-07    -6.224    -6.310    -0.086
   CsBr                   4.886e-07   4.886e-07    -6.311    -6.311     0.000
   MnBr+                  2.969e-07   2.437e-07    -6.527    -6.613    -0.086
   MgBr+                  1.907e-07   1.565e-07    -6.720    -6.806    -0.086
   EuBr+2                 1.893e-07   8.590e-08    -6.723    -7.066    -0.343
   SmBr+2                 1.884e-07   8.546e-08    -6.725    -7.068    -0.343
   CdBr2                  8.039e-08   8.039e-08    -7.095    -7.095     0.000
   RbBr                   2.287e-08   2.287e-08    -7.641    -7.641     0.000
   PdBr3-                 3.892e-10   3.194e-10    -9.410    -9.496    -0.086
   PbBr2                  3.761e-10   3.761e-10    -9.425    -9.425     0.000
   PdBr2                  1.346e-10   1.346e-10    -9.871    -9.871     0.000
   CdBr3-                 8.835e-11   7.251e-11   -10.054   -10.140    -0.086
   EuBr2+                 2.317e-11   1.902e-11   -10.635   -10.721    -0.086
   PdBr+                  1.736e-11   1.425e-11   -10.760   -10.846    -0.086
   UO2Br+                 1.437e-11   1.180e-11   -10.843   -10.928    -0.086
   PdBr4-2                7.810e-12   3.544e-12   -11.107   -11.450    -0.343
   CrBr+2                 2.521e-12   1.144e-12   -11.598   -11.942    -0.343
   PbBr3-                 2.220e-12   1.822e-12   -11.654   -11.739    -0.086
   FeBr+2                 9.036e-16   4.099e-16   -15.044   -15.387    -0.343
   FeBr2+                 3.835e-19   3.147e-19   -18.416   -18.502    -0.086
   HfBr+3                 1.082e-22   1.828e-23   -21.966   -22.738    -0.772
   PuBr+3                 3.032e-24   5.123e-25   -23.518   -24.290    -0.772
   NpBr+3                 2.272e-27   2.272e-27   -26.644   -26.644     0.000
   SnBr+                  1.832e-36   1.832e-36   -35.737   -35.737     0.000
   UBr+3                  2.251e-37   2.251e-37   -36.648   -36.648     0.000
   SnBr2                  5.731e-39   5.731e-39   -38.242   -38.242     0.000
   SnBr3-                 0.000e+00   0.000e+00   -41.937   -41.937     0.000
   UO2BrO3+               0.000e+00   0.000e+00   -90.689   -90.689     0.000
C(-4)            0.000e+00
   CH4                    0.000e+00   0.000e+00   -72.079   -72.079     0.000
C(4)             1.000e-03
   FeCO3OH                5.212e-04   5.212e-04    -3.283    -3.283     0.000
   (UO2)2(CO3)(OH)3-      1.941e-04   1.593e-04    -3.712    -3.798    -0.086
   Ho(CO3)+               6.588e-05   5.408e-05    -4.181    -4.267    -0.086
   Eu(CO3)+               5.179e-05   4.251e-05    -4.286    -4.371    -0.086
   Am(CO3)+               4.481e-05   3.678e-05    -4.349    -4.434    -0.086
   CmCO3+                 4.478e-05   3.678e-05    -4.349    -4.434    -0.085
   Sm(CO3)+               4.286e-05   3.518e-05    -4.368    -4.454    -0.086
   HCO3-                  1.398e-05   1.147e-05    -4.854    -4.940    -0.086
   Mn(CO3)                6.329e-06   6.329e-06    -5.199    -5.199     0.000
   Am(HCO3)+2             2.747e-06   1.246e-06    -5.561    -5.904    -0.343
   CmHCO3+2               2.747e-06   1.246e-06    -5.561    -5.904    -0.343
   CO2                    2.570e-06   2.570e-06    -5.590    -5.590     0.000
   Pb(CO3)                1.083e-06   1.083e-06    -5.965    -5.965     0.000
   UO2(CO3)               6.861e-07   6.861e-07    -6.164    -6.164     0.000
   Th(OH)3(CO3)-          5.542e-07   4.548e-07    -6.256    -6.342    -0.086
   NpO2(CO3)-             4.857e-07   3.985e-07    -6.314    -6.400    -0.086
   CoHCO3+                4.807e-07   3.945e-07    -6.318    -6.404    -0.086
   Fe(CO3)                4.542e-07   4.542e-07    -6.343    -6.343     0.000
   Ho(HCO3)+2             3.770e-07   1.710e-07    -6.424    -6.767    -0.343
   Sm(HCO3)+2             3.308e-07   1.501e-07    -6.480    -6.824    -0.343
   Eu(HCO3)+2             3.175e-07   1.441e-07    -6.498    -6.841    -0.343
   Cd(HCO3)+              1.821e-07   1.495e-07    -6.740    -6.825    -0.086
   Ni(HCO3)+              1.404e-07   1.152e-07    -6.853    -6.939    -0.086
   Cd(CO3)                1.108e-07   1.108e-07    -6.955    -6.955     0.000
   Mn(HCO3)+              9.934e-08   8.153e-08    -7.003    -7.089    -0.086
   Sr(HCO3)+              9.417e-08   7.729e-08    -7.026    -7.112    -0.086
   Ca(HCO3)+              7.835e-08   6.430e-08    -7.106    -7.192    -0.086
   Th(OH)2(CO3)           7.212e-08   7.212e-08    -7.142    -7.142     0.000
   Ho(CO3)2-              7.057e-08   5.791e-08    -7.151    -7.237    -0.086
   Mg(HCO3)+              6.836e-08   5.610e-08    -7.165    -7.251    -0.086
   FeHCO3+                6.654e-08   5.461e-08    -7.177    -7.263    -0.086
   Ba(HCO3)+              5.784e-08   4.747e-08    -7.238    -7.324    -0.086
   CoCO3                  4.037e-08   4.037e-08    -7.394    -7.394     0.000
   UO2(CO3)2-2            3.796e-08   1.722e-08    -7.421    -7.764    -0.343
   Ni(CO3)                3.400e-08   3.400e-08    -7.469    -7.469     0.000
   Eu(CO3)2-              2.780e-08   2.282e-08    -7.556    -7.642    -0.086
   Ra(HCO3)+              2.341e-08   1.921e-08    -7.631    -7.716    -0.086
   Sm(CO3)2-              2.301e-08   1.888e-08    -7.638    -7.724    -0.086
   Am(CO3)2-              1.206e-08   9.895e-09    -7.919    -8.005    -0.086
   Cm(CO3)2-              1.205e-08   9.894e-09    -7.919    -8.005    -0.085
   CO3-2                  1.183e-08   5.367e-09    -7.927    -8.270    -0.343
   Pu(CO3)2(OH)2-2        9.695e-09   4.398e-09    -8.013    -8.357    -0.343
   Np(CO3)(OH)3-          5.702e-09   4.679e-09    -8.244    -8.330    -0.086
   Na(HCO3)               5.286e-09   5.286e-09    -8.277    -8.277     0.000
   CaCO3                  3.965e-09   3.965e-09    -8.402    -8.402     0.000
   Hf(CO3)4-4             2.448e-09   1.037e-10    -8.611    -9.984    -1.373
   Mg(CO3)                2.286e-09   2.286e-09    -8.641    -8.641     0.000
   Th(OH)2(CO3)2-2        1.703e-09   7.723e-10    -8.769    -9.112    -0.343
   Sr(CO3)                1.542e-09   1.542e-09    -8.812    -8.812     0.000
   Ba(CO3)                1.192e-09   1.192e-09    -8.924    -8.924     0.000
   FeCO3OH-               1.054e-09   8.649e-10    -8.977    -9.063    -0.086
   Ra(CO3)                7.305e-10   7.305e-10    -9.136    -9.136     0.000
   Pu(CO3)+               3.714e-10   3.049e-10    -9.430    -9.516    -0.086
   UO2(CO3)3-4            3.706e-10   1.570e-11    -9.431   -10.804    -1.373
   Na(CO3)-               9.975e-11   8.186e-11   -10.001   -10.087    -0.086
   (UO2)3(CO3)(OH)3+      9.433e-11   7.741e-11   -10.025   -10.111    -0.086
   AgCO3-                 6.058e-11   4.972e-11   -10.218   -10.303    -0.086
   Pb(CO3)2-2             1.728e-11   7.842e-12   -10.762   -11.106    -0.343
   Th(OH)4(CO3)-2         1.261e-11   5.722e-12   -10.899   -11.242    -0.343
   PuO2CO3-               8.120e-12   6.661e-12   -11.090   -11.176    -0.086
   Np(OH)4(CO3)-2         2.308e-12   1.047e-12   -11.637   -11.980    -0.343
   Np(OH)2(CO3)2-2        1.240e-12   5.625e-13   -11.907   -12.250    -0.343
   NpO2(CO3)2-3           4.707e-13   7.946e-14   -12.327   -13.100    -0.773
   Fe(CO3)2-2             3.092e-13   1.403e-13   -12.510   -12.853    -0.343
   Fe(CO3)3-3             2.686e-13   4.536e-14   -12.571   -13.343    -0.772
   Pu(CO3)2-              1.584e-13   1.300e-13   -12.800   -12.886    -0.086
   Cd(CO3)2-2             8.271e-14   3.752e-14   -13.082   -13.426    -0.343
   Sm(CO3)3-3             5.999e-14   1.013e-14   -13.222   -13.994    -0.772
   Ho(CO3)3-3             5.819e-14   9.829e-15   -13.235   -14.007    -0.772
   Eu(CO3)3-3             5.759e-14   9.727e-15   -13.240   -14.012    -0.772
   Ni(CO3)2-2             4.022e-14   1.825e-14   -13.396   -13.739    -0.343
   Am(CO3)3-3             3.146e-14   5.310e-15   -13.502   -14.275    -0.773
   Cm(CO3)3-3             3.143e-14   5.310e-15   -13.503   -14.275    -0.772
   Pd(CO3)                1.813e-15   1.813e-15   -14.742   -14.742     0.000
   (UO2)11(CO3)6(OH)12-2   9.580e-16   4.346e-16   -15.019   -15.362    -0.343
   (UO2)3(CO3)6-6         9.274e-17   7.556e-20   -16.033   -19.122    -3.089
   Pu(CO3)3-3             2.993e-17   5.053e-18   -16.524   -17.296    -0.772
   NpO2(CO3)2OH-4         2.712e-17   1.148e-18   -16.567   -17.940    -1.373
   Pd(CO3)2-2             1.075e-17   4.878e-18   -16.969   -17.312    -0.343
   Pu(CO3)4-4             5.205e-18   2.204e-19   -17.284   -18.657    -1.373
   NpO2(CO3)              2.346e-18   2.346e-18   -17.630   -17.630     0.000
   Th(OH)(CO3)4-5         1.964e-18   1.405e-20   -17.707   -19.852    -2.146
   Tc(OH)3CO3-            1.318e-18   1.082e-18   -17.880   -17.966    -0.086
   Ag(CO3)2-3             4.662e-19   7.875e-20   -18.331   -19.104    -0.772
   NpO2(CO3)2-2           4.399e-19   1.996e-19   -18.357   -18.700    -0.343
   PuO2(CO3)              2.418e-19   2.418e-19   -18.616   -18.616     0.000
   Zr(CO3)4-4             1.564e-20   6.624e-22   -19.806   -21.179    -1.373
   Np(CO3)4-4             1.240e-20   5.250e-22   -19.907   -21.280    -1.373
   NpO2(CO3)3-5           5.569e-21   3.980e-23   -20.254   -22.400    -2.146
   NpO2(CO3)(OH)2-2       5.048e-21   2.290e-21   -20.297   -20.640    -0.343
   PuO2(CO3)2-2           4.542e-22   2.057e-22   -21.343   -21.687    -0.344
   NpO2(CO3)3-4           1.792e-23   7.583e-25   -22.747   -24.120    -1.373
   Sn(CO3)4-4             3.139e-26   3.139e-26   -25.503   -25.503     0.000
   Th(CO3)5-6             1.895e-26   1.895e-26   -25.722   -25.722     0.000
   Np(CO3)+               1.663e-26   1.663e-26   -25.779   -25.779     0.000
   PuO2(CO3)3-4           2.203e-27   2.203e-27   -26.657   -26.657     0.000
   Sn(CO3)5-6             3.601e-28   3.601e-28   -27.444   -27.444     0.000
   (NpO2)2CO3(OH)3-       3.164e-28   3.164e-28   -27.500   -27.500     0.000
   PuO2(CO3)3-5           1.560e-28   1.560e-28   -27.807   -27.807     0.000
   UO2(CO3)3-5            6.107e-29   6.107e-29   -28.214   -28.214     0.000
   Pu(CO3)5-6             5.285e-29   5.285e-29   -28.277   -28.277     0.000
   Np(CO3)2-              7.598e-30   7.598e-30   -29.119   -29.119     0.000
   AmO2(CO3)-             2.484e-30   2.484e-30   -29.605   -29.605     0.000
   (UO2)2(NpO2)(CO3)6-6   4.191e-31   4.191e-31   -30.378   -30.378     0.000
   Np(CO3)5-6             2.398e-31   2.398e-31   -30.620   -30.620     0.000
   PuO2(CO3)6(UO2)2-6     2.216e-32   2.216e-32   -31.655   -31.655     0.000
   Sn(CO3)                9.069e-33   9.069e-33   -32.042   -32.042     0.000
   Sn(CO3)2-2             6.566e-33   6.566e-33   -32.183   -32.183     0.000
   CO                     2.139e-33   2.139e-33   -32.670   -32.670     0.000
   U(CO3)4-4              1.762e-33   1.762e-33   -32.754   -32.754     0.000
   SnHCO3+                1.373e-34   1.373e-34   -33.862   -33.862     0.000
   Np(CO3)3-3             4.682e-35   4.682e-35   -34.330   -34.330     0.000
   AmO2(CO3)2-3           5.307e-37   5.307e-37   -36.275   -36.275     0.000
   U(CO3)5-6              0.000e+00   0.000e+00   -42.144   -42.144     0.000
   AmO2(CO3)3-5           0.000e+00   0.000e+00   -46.145   -46.145     0.000
   Am(CO3)5-6             0.000e+00   0.000e+00   -46.515   -46.515     0.000
   (NpO2)3(CO3)6-6        0.000e+00   0.000e+00   -55.820   -55.820     0.000
   (PuO2)3(CO3)6-6        0.000e+00   0.000e+00   -63.140   -63.140     0.000
Ca               1.000e-03
   Ca+2                   9.809e-04   4.451e-04    -3.008    -3.352    -0.343
   Ca(SO4)                1.870e-05   1.870e-05    -4.728    -4.728     0.000
   CaCl+                  2.115e-07   1.736e-07    -6.675    -6.761    -0.086
   CaF+                   9.214e-08   7.562e-08    -7.036    -7.121    -0.086
   Ca(HCO3)+              7.835e-08   6.430e-08    -7.106    -7.192    -0.086
   CaB(OH)4+              1.978e-08   1.623e-08    -7.704    -7.790    -0.086
   CaCO3                  3.965e-09   3.965e-09    -8.402    -8.402     0.000
   CaI+                   3.880e-09   3.184e-09    -8.411    -8.497    -0.086
   Ca(NH3)+2              9.727e-10   4.413e-10    -9.012    -9.355    -0.343
   Ca(OH)+                8.996e-10   7.383e-10    -9.046    -9.132    -0.086
   Ca(H3SiO4)+            2.245e-10   1.843e-10    -9.649    -9.735    -0.086
   Ca(HPO4)               6.870e-11   6.870e-11   -10.163   -10.163     0.000
   CaCl2                  5.894e-11   5.894e-11   -10.230   -10.230     0.000
   Ca(H2PO4)+             6.205e-12   5.093e-12   -11.207   -11.293    -0.086
   Ca(PO4)-               1.523e-12   1.250e-12   -11.817   -11.903    -0.086
   Ca(Sm(OH)3)+2          5.099e-13   2.313e-13   -12.293   -12.636    -0.343
   Ca(Ho(OH)3)+2          4.946e-13   2.244e-13   -12.306   -12.649    -0.343
   Ca(Eu(OH)3)+2          4.894e-13   2.220e-13   -12.310   -12.654    -0.343
   Ca(Am(OH)3)+2          4.235e-13   1.921e-13   -12.373   -12.716    -0.343
   Ca(Cm(OH)3)+2          4.235e-13   1.921e-13   -12.373   -12.716    -0.343
   CaI2                   1.141e-14   1.141e-14   -13.943   -13.943     0.000
   CaCrO4                 6.173e-15   6.173e-15   -14.210   -14.210     0.000
   Ca(NH3)2+2             3.049e-16   1.383e-16   -15.516   -15.859    -0.343
   Ca(SeO4)               1.364e-19   1.364e-19   -18.865   -18.865     0.000
   Ca2(Sm(OH)4)+3         7.670e-20   1.296e-20   -19.115   -19.888    -0.772
   Ca2(Ho(OH)4)+3         7.439e-20   1.257e-20   -19.128   -19.901    -0.772
   Ca2(Eu(OH)4)+3         7.362e-20   1.244e-20   -19.133   -19.905    -0.772
   Ca2(Am(OH)4)+3         6.370e-20   1.076e-20   -19.196   -19.968    -0.772
   Ca2(Cm(OH)4)+3         6.370e-20   1.076e-20   -19.196   -19.968    -0.772
   Ca(NH3)3+2             6.031e-23   2.736e-23   -22.220   -22.563    -0.343
   Ca(NO3)+               2.690e-24   2.207e-24   -23.570   -23.656    -0.086
   Ca(NH3)4+2             2.712e-30   2.712e-30   -29.567   -29.567     0.000
   Ca3(Sm(OH)6)+3         1.821e-33   1.821e-33   -32.740   -32.740     0.000
   Ca3(Ho(OH)6)+3         1.767e-33   1.767e-33   -32.753   -32.753     0.000
   Ca3(Eu(OH)6)+3         1.748e-33   1.748e-33   -32.757   -32.757     0.000
   Ca3(Am(OH)6)+3         1.513e-33   1.513e-33   -32.820   -32.820     0.000
   Ca3(Cm(OH)6)+3         1.513e-33   1.513e-33   -32.820   -32.820     0.000
   Ca(NO3)2               0.000e+00   0.000e+00   -44.661   -44.661     0.000
   Ca(IO3)+               0.000e+00   0.000e+00   -53.798   -53.798     0.000
   Ca(S2O3)               0.000e+00   0.000e+00   -72.264   -72.264     0.000
Cd               1.000e-03
   Cd+2                   9.077e-04   4.119e-04    -3.042    -3.385    -0.343
   CdCl+                  3.560e-05   2.923e-05    -4.449    -4.534    -0.086
   CdBr+                  3.514e-05   2.884e-05    -4.454    -4.540    -0.086
   Cd(SO4)                1.987e-05   1.987e-05    -4.702    -4.702     0.000
   Cd(OH)+                4.172e-07   3.424e-07    -6.380    -6.465    -0.086
   Cd(NH3)+2              3.752e-07   1.702e-07    -6.426    -6.769    -0.343
   CdI+                   3.199e-07   2.626e-07    -6.495    -6.581    -0.086
   Cd(HCO3)+              1.821e-07   1.495e-07    -6.740    -6.825    -0.086
   Cd(CO3)                1.108e-07   1.108e-07    -6.955    -6.955     0.000
   Cd(SO4)2-2             1.058e-07   4.802e-08    -6.975    -7.319    -0.343
   CdCl2                  9.263e-08   9.263e-08    -7.033    -7.033     0.000
   CdBr2                  8.039e-08   8.039e-08    -7.095    -7.095     0.000
   CdHPO4                 6.213e-09   6.213e-09    -8.207    -8.207     0.000
   Cd(NH3)2+2             1.048e-10   4.756e-11    -9.979   -10.323    -0.343
   CdBr3-                 8.835e-11   7.251e-11   -10.054   -10.140    -0.086
   CdCl3-                 5.540e-11   4.547e-11   -10.256   -10.342    -0.086
   Cd(OH)2                5.179e-11   5.179e-11   -10.286   -10.286     0.000
   CdI2                   3.663e-11   3.663e-11   -10.436   -10.436     0.000
   Cd(H2PO4)+             1.146e-11   9.404e-12   -10.941   -11.027    -0.086
   Cd(CO3)2-2             8.271e-14   3.752e-14   -13.082   -13.426    -0.343
   CdCl4-2                8.952e-15   4.061e-15   -14.048   -14.391    -0.343
   CdI3-                  3.049e-15   2.502e-15   -14.516   -14.602    -0.086
   Cd(NH3)3+2             1.502e-15   6.815e-16   -14.823   -15.167    -0.343
   Cd(OH)3-               2.511e-16   2.061e-16   -15.600   -15.686    -0.086
   Cd4(OH)4+4             5.771e-17   2.445e-18   -16.239   -17.612    -1.373
   Cd(SeO4)               2.350e-19   2.350e-19   -18.629   -18.629     0.000
   CdI4-2                 1.977e-19   8.970e-20   -18.704   -19.047    -0.343
   Cd(NH3)4+2             4.395e-20   1.994e-20   -19.357   -19.700    -0.343
   Cd(OH)4-2              2.999e-23   1.361e-23   -22.523   -22.866    -0.343
   Cd(NO3)+               1.803e-24   1.480e-24   -23.744   -23.830    -0.086
   Cd(NO3)2               0.000e+00   0.000e+00   -45.024   -45.024     0.000
   CdHS+                  0.000e+00   0.000e+00   -61.001   -61.001     0.000
   Cd(S2O3)               0.000e+00   0.000e+00   -71.737   -71.737     0.000
   Cd(HS)2                0.000e+00   0.000e+00  -118.946  -118.946     0.000
Cl               1.000e-03
   Cl-                    9.221e-04   7.602e-04    -3.035    -3.119    -0.084
   CdCl+                  3.560e-05   2.923e-05    -4.449    -4.534    -0.086
   AgCl                   2.678e-05   2.678e-05    -4.572    -4.572     0.000
   AgCl2-                 2.480e-06   2.036e-06    -5.605    -5.691    -0.086
   CoCl+                  1.524e-06   1.251e-06    -5.817    -5.903    -0.086
   EuCl+2                 9.612e-07   4.363e-07    -6.017    -6.360    -0.343
   HoCl+2                 9.276e-07   4.210e-07    -6.033    -6.376    -0.343
   MgCl+                  9.248e-07   7.590e-07    -6.034    -6.120    -0.086
   SmCl+2                 9.133e-07   4.145e-07    -6.039    -6.382    -0.343
   SrCl+                  7.001e-07   5.745e-07    -6.155    -6.241    -0.086
   MnCl+                  6.892e-07   5.657e-07    -6.162    -6.247    -0.086
   PbCl+                  5.149e-07   4.226e-07    -6.288    -6.374    -0.086
   CsCl                   5.066e-07   5.066e-07    -6.295    -6.295     0.000
   BaCl+                  4.608e-07   3.782e-07    -6.337    -6.422    -0.086
   NiCl+                  4.451e-07   3.654e-07    -6.352    -6.437    -0.086
   RaCl+                  3.167e-07   2.599e-07    -6.499    -6.585    -0.086
   CmCl+2                 2.513e-07   1.140e-07    -6.600    -6.943    -0.343
   AmCl+2                 2.512e-07   1.140e-07    -6.600    -6.943    -0.343
   FeCl+                  2.209e-07   1.813e-07    -6.656    -6.742    -0.086
   CaCl+                  2.115e-07   1.736e-07    -6.675    -6.761    -0.086
   KCl                    1.970e-07   1.970e-07    -6.706    -6.706     0.000
   NaCl                   1.969e-07   1.969e-07    -6.706    -6.706     0.000
   CdCl2                  9.263e-08   9.263e-08    -7.033    -7.033     0.000
   NpO2Cl                 7.271e-08   7.271e-08    -7.138    -7.138     0.000
   RbCl                   6.096e-08   6.096e-08    -7.215    -7.215     0.000
   AgCl3-2                3.572e-09   1.621e-09    -8.447    -8.790    -0.343
   PbCl2                  1.166e-09   1.166e-09    -8.933    -8.933     0.000
   MnCl2                  3.833e-10   3.833e-10    -9.416    -9.416     0.000
   CoCl2                  2.681e-10   2.681e-10    -9.572    -9.572     0.000
   RaCl2                  1.976e-10   1.976e-10    -9.704    -9.704     0.000
   CrCl+2                 6.876e-11   3.119e-11   -10.163   -10.506    -0.343
   EuCl2+                 6.257e-11   5.137e-11   -10.204   -10.289    -0.086
   CaCl2                  5.894e-11   5.894e-11   -10.230   -10.230     0.000
   CdCl3-                 5.540e-11   4.547e-11   -10.256   -10.342    -0.086
   HoCl2+                 3.638e-11   2.987e-11   -10.439   -10.525    -0.086
   FeCl2                  3.016e-11   3.016e-11   -10.521   -10.521     0.000
   UO2Cl+                 2.010e-11   1.650e-11   -10.697   -10.782    -0.086
   HCl                    1.482e-11   1.482e-11   -10.829   -10.829     0.000
   AgCl4-3                1.210e-11   2.045e-12   -10.917   -11.689    -0.772
   CmCl2+                 1.106e-11   9.074e-12   -10.956   -11.042    -0.086
   AmCl2+                 1.105e-11   9.075e-12   -10.956   -11.042    -0.086
   PdCl+                  5.826e-12   4.783e-12   -11.235   -11.320    -0.086
   PdCl2                  5.763e-12   5.763e-12   -11.239   -11.239     0.000
   PdCl3-                 2.125e-12   1.744e-12   -11.673   -11.758    -0.086
   FeCl3-                 9.687e-13   7.950e-13   -12.014   -12.100    -0.086
   PbCl3-                 5.292e-13   4.343e-13   -12.276   -12.362    -0.086
   Cr(OH)Cl2              1.059e-13   1.059e-13   -12.975   -12.975     0.000
   PdCl3(OH)-2            9.876e-14   4.481e-14   -13.005   -13.349    -0.343
   MnCl3-                 9.779e-14   8.025e-14   -13.010   -13.096    -0.086
   PdCl4-2                1.844e-14   8.367e-15   -13.734   -14.077    -0.343
   CdCl4-2                8.952e-15   4.061e-15   -14.048   -14.391    -0.343
   FeCl+2                 7.108e-15   3.225e-15   -14.148   -14.492    -0.343
   CoCl3-                 4.624e-15   3.795e-15   -14.335   -14.421    -0.086
   CrCl2+                 1.352e-15   1.109e-15   -14.869   -14.955    -0.086
   UO2Cl2                 6.738e-16   6.738e-16   -15.171   -15.171     0.000
   PbCl4-2                3.733e-16   1.693e-16   -15.428   -15.771    -0.343
   CrCl+                  1.445e-16   1.186e-16   -15.840   -15.926    -0.086
   ThCl+3                 1.959e-17   3.310e-18   -16.708   -17.480    -0.772
   FeCl2+                 1.497e-17   1.229e-17   -16.825   -16.911    -0.086
   CoCl4-2                2.651e-18   1.203e-18   -17.577   -17.920    -0.343
   HfCl+3                 1.123e-20   1.896e-21   -19.950   -20.722    -0.772
   FeCl3                  1.001e-21   1.001e-21   -21.000   -21.000     0.000
   NpO2Cl+                4.866e-22   3.996e-22   -21.313   -21.398    -0.086
   CrO3Cl-                2.624e-23   2.154e-23   -22.581   -22.667    -0.086
   PuO2Cl+                2.240e-23   1.840e-23   -22.650   -22.735    -0.086
   PuCl+3                 7.543e-24   1.274e-24   -23.122   -23.895    -0.772
   HfCl2+2                2.249e-24   1.021e-24   -23.648   -23.991    -0.343
   FeCl4-                 9.148e-27   9.148e-27   -26.039   -26.039     0.000
   SnCl3+                 5.020e-27   5.020e-27   -26.299   -26.299     0.000
   NpCl+3                 3.178e-27   3.178e-27   -26.498   -26.498     0.000
   SnCl2+2                2.629e-27   2.629e-27   -26.580   -26.580     0.000
   PuO2Cl2                5.831e-28   5.831e-28   -27.234   -27.234     0.000
   SnCl+3                 1.509e-28   1.509e-28   -27.821   -27.821     0.000
   SnCl4                  6.481e-29   6.481e-29   -28.188   -28.188     0.000
   SbCl+2                 1.140e-29   1.140e-29   -28.943   -28.943     0.000
   SnCl5-                 2.771e-30   2.771e-30   -29.557   -29.557     0.000
   ICl2-                  4.747e-31   4.747e-31   -30.324   -30.324     0.000
   SbCl2+                 2.557e-32   2.557e-32   -31.592   -31.592     0.000
   SnCl6-2                9.195e-33   9.195e-33   -32.036   -32.036     0.000
   ZrCl+3                 2.973e-33   2.973e-33   -32.527   -32.527     0.000
   Sn(OH)Cl               1.943e-33   1.943e-33   -32.712   -32.712     0.000
   SnCl+                  1.227e-35   1.227e-35   -34.911   -34.911     0.000
   ZrCl2+2                8.592e-36   8.592e-36   -35.066   -35.066     0.000
   UCl+3                  6.429e-37   6.429e-37   -36.192   -36.192     0.000
   SnCl2                  4.263e-38   4.263e-38   -37.370   -37.370     0.000
   SnCl3-                 0.000e+00   0.000e+00   -40.749   -40.749     0.000
   SnCl4-2                0.000e+00   0.000e+00   -42.638   -42.638     0.000
   Cl2                    0.000e+00   0.000e+00   -45.448   -45.448     0.000
   UO2ClO3+               0.000e+00   0.000e+00   -90.693   -90.693     0.000
   ClO4-                  0.000e+00   0.000e+00  -103.210  -103.210     0.000
Cm               1.000e-03
   Cm+3                   5.105e-04   8.628e-05    -3.292    -4.064    -0.772
   CmSiO(OH)3+2           2.607e-04   1.183e-04    -3.584    -3.927    -0.343
   Cm(OH)+2               1.199e-04   5.440e-05    -3.921    -4.264    -0.343
   CmCO3+                 4.478e-05   3.678e-05    -4.349    -4.434    -0.085
   CmSO4+                 4.315e-05   3.542e-05    -4.365    -4.451    -0.086
   CmF+2                  9.317e-06   4.227e-06    -5.031    -5.374    -0.343
   Cm(OH)2+               8.345e-06   6.845e-06    -5.079    -5.165    -0.086
   CmHCO3+2               2.747e-06   1.246e-06    -5.561    -5.904    -0.343
   CmCl+2                 2.513e-07   1.140e-07    -6.600    -6.943    -0.343
   CmF3                   9.689e-08   9.689e-08    -7.014    -7.014     0.000
   CmPO4                  6.829e-08   6.829e-08    -7.166    -7.166     0.000
   CmF2+                  2.523e-08   2.071e-08    -7.598    -7.684    -0.086
   Cm(SO4)2-              2.230e-08   1.830e-08    -7.652    -7.737    -0.086
   Cm(CO3)2-              1.205e-08   9.894e-09    -7.919    -8.005    -0.085
   Cm(HPO4)+              7.589e-09   6.228e-09    -8.120    -8.206    -0.086
   Cm(OH)3                5.433e-10   5.433e-10    -9.265    -9.265     0.000
   Cm(H2PO4)+2            1.728e-11   7.841e-12   -10.762   -11.106    -0.343
   CmCl2+                 1.106e-11   9.074e-12   -10.956   -11.042    -0.086
   Ca(Cm(OH)3)+2          4.235e-13   1.921e-13   -12.373   -12.716    -0.343
   Cm(PO4)2-3             3.937e-14   6.650e-15   -13.405   -14.177    -0.772
   Cm(CO3)3-3             3.143e-14   5.310e-15   -13.503   -14.275    -0.772
   Cm(HPO4)2-             8.485e-15   6.964e-15   -14.071   -14.157    -0.086
   Cm(OH)4-               2.092e-17   1.717e-17   -16.679   -16.765    -0.086
   Ca2(Cm(OH)4)+3         6.370e-20   1.076e-20   -19.196   -19.968    -0.772
   CmNO3+2                5.065e-24   2.298e-24   -23.295   -23.639    -0.343
   Ca3(Cm(OH)6)+3         1.513e-33   1.513e-33   -32.820   -32.820     0.000
Co               1.000e-03
   Co+2                   9.763e-04   4.429e-04    -3.010    -3.354    -0.343
   CoSO4                  1.818e-05   1.818e-05    -4.740    -4.740     0.000
   Co(OH)+                3.176e-06   2.606e-06    -5.498    -5.584    -0.086
   CoCl+                  1.524e-06   1.251e-06    -5.817    -5.903    -0.086
   CoHCO3+                4.807e-07   3.945e-07    -6.318    -6.404    -0.086
   CoF+                   3.328e-07   2.732e-07    -6.478    -6.564    -0.086
   CoCO3                  4.037e-08   4.037e-08    -7.394    -7.394     0.000
   Co(OH)2                1.111e-08   1.111e-08    -7.954    -7.954     0.000
   Co2(OH)+3              1.717e-09   2.900e-10    -8.765    -9.538    -0.772
   CoCl2                  2.681e-10   2.681e-10    -9.572    -9.572     0.000
   CoHPO4                 1.134e-10   1.134e-10    -9.945    -9.945     0.000
   Co4(OH)4+4             1.194e-14   5.059e-16   -13.923   -15.296    -1.373
   Co(OH)3-               1.075e-14   8.820e-15   -13.969   -14.055    -0.086
   CoCl3-                 4.624e-15   3.795e-15   -14.335   -14.421    -0.086
   CoCl4-2                2.651e-18   1.203e-18   -17.577   -17.920    -0.343
   Co(SeO4)               6.801e-19   6.801e-19   -18.167   -18.167     0.000
   Co(OH)4-2              3.702e-22   1.680e-22   -21.432   -21.775    -0.343
   CoHS+                  0.000e+00   0.000e+00   -62.679   -62.679     0.000
   CoS2O3                 0.000e+00   0.000e+00   -72.116   -72.116     0.000
   Co(HS)2                0.000e+00   0.000e+00  -124.575  -124.575     0.000
Cr(2)            1.693e-16
   CrCl+                  1.445e-16   1.186e-16   -15.840   -15.926    -0.086
   Cr(OH)+                2.391e-17   1.963e-17   -16.621   -16.707    -0.086
   Cr+2                   8.637e-19   3.918e-19   -18.064   -18.407    -0.343
Cr(3)            1.000e-03
   Cr(OH)3                6.343e-04   6.343e-04    -3.198    -3.198     0.000
   Cr(OH)2+               1.731e-04   1.421e-04    -3.762    -3.847    -0.086
   Cr(OH)3(H2PO4)-        5.842e-05   4.794e-05    -4.233    -4.319    -0.086
   Cr(OH)+2               5.836e-05   2.647e-05    -4.234    -4.577    -0.343
   Cr3(OH)4+5             2.363e-05   1.691e-07    -4.626    -6.772    -2.145
   Cr2(OH)2+4             2.284e-06   9.675e-08    -5.641    -7.014    -1.373
   CrSO4+                 1.005e-07   8.249e-08    -6.998    -7.084    -0.086
   Cr(OH)3(HPO4)-2        9.419e-08   4.273e-08    -7.026    -7.369    -0.343
   CrF+2                  6.863e-08   3.113e-08    -7.164    -7.507    -0.343
   Cr+3                   5.827e-08   9.842e-09    -7.235    -8.007    -0.772
   Cr(OH)4-               2.678e-08   2.198e-08    -7.572    -7.658    -0.086
   CrF2+                  9.315e-09   7.645e-09    -8.031    -8.117    -0.086
   Cr(HPO4)+              7.716e-09   6.332e-09    -8.113    -8.198    -0.086
   CrCl+2                 6.876e-11   3.119e-11   -10.163   -10.506    -0.343
   CrF3                   5.936e-11   5.936e-11   -10.227   -10.227     0.000
   CrBr+2                 2.521e-12   1.144e-12   -11.598   -11.942    -0.343
   Cr(OH)3(PO4)-3         8.572e-13   1.448e-13   -12.067   -12.839    -0.772
   Cr(OH)Cl2              1.059e-13   1.059e-13   -12.975   -12.975     0.000
   Cr(H2PO4)+2            2.850e-15   1.293e-15   -14.545   -14.888    -0.343
   CrCl2+                 1.352e-15   1.109e-15   -14.869   -14.955    -0.086
   Cr(OH)4(HPO4)(H2PO4)-4   5.272e-20   2.233e-21   -19.278   -20.651    -1.373
Cr(6)            6.758e-14
   CrO4-2                 5.191e-14   2.355e-14   -13.285   -13.628    -0.343
   HCrO4-                 9.502e-15   7.798e-15   -14.022   -14.108    -0.086
   CaCrO4                 6.173e-15   6.173e-15   -14.210   -14.210     0.000
   FeCrO4+                3.057e-19   2.509e-19   -18.515   -18.600    -0.086
   H2CrO4                 4.920e-22   4.920e-22   -21.308   -21.308     0.000
   CrO3Cl-                2.624e-23   2.154e-23   -22.581   -22.667    -0.086
   HCrPO7-2               4.405e-24   1.999e-24   -23.356   -23.699    -0.343
   Cr2O7-2                3.121e-27   3.121e-27   -26.506   -26.506     0.000
   H2CrPO7-               8.928e-29   8.928e-29   -28.049   -28.049     0.000
Cs               1.000e-03
   Cs+                    9.990e-04   8.198e-04    -3.000    -3.086    -0.086
   CsCl                   5.066e-07   5.066e-07    -6.295    -6.295     0.000
   CsBr                   4.886e-07   4.886e-07    -6.311    -6.311     0.000
   CsI                    4.767e-08   4.767e-08    -7.322    -7.322     0.000
   CsF                    6.666e-09   6.666e-09    -8.176    -8.176     0.000
   Cs(OH)                 1.877e-12   1.877e-12   -11.727   -11.727     0.000
Cu(1)            4.188e-06
   Cu+                    4.188e-06   3.437e-06    -5.378    -5.464    -0.086
Cu(2)            9.958e-04
   Cu(B(OH)4)+            7.481e-04   6.140e-04    -3.126    -3.212    -0.086
   Cu+2                   1.735e-04   7.874e-05    -3.761    -4.104    -0.343
   Cu(B(OH)4)2            7.415e-05   7.415e-05    -4.130    -4.130     0.000
   Cu(B(OH)4)3-           2.741e-08   2.249e-08    -7.562    -7.648    -0.086
   Cu(SeO4)               3.823e-20   3.823e-20   -19.418   -19.418     0.000
Eu(2)            2.355e-14
   Eu+2                   2.355e-14   1.069e-14   -13.628   -13.971    -0.343
Eu(3)            1.000e-03
   Eu+3                   5.901e-04   9.972e-05    -3.229    -4.001    -0.772
   EuSiO(OH)3+2           1.476e-04   6.695e-05    -3.831    -4.174    -0.343
   EuF+2                  9.162e-05   4.158e-05    -4.038    -4.381    -0.343
   Eu(SO4)+               7.902e-05   6.488e-05    -4.102    -4.188    -0.086
   Eu(CO3)+               5.179e-05   4.251e-05    -4.286    -4.371    -0.086
   Eu(OH)+2               3.482e-05   1.579e-05    -4.458    -4.801    -0.343
   Eu(OH)2+               2.423e-06   1.987e-06    -5.616    -5.702    -0.086
   EuCl+2                 9.612e-07   4.363e-07    -6.017    -6.360    -0.343
   Eu(SO4)2-              8.152e-07   6.689e-07    -6.089    -6.175    -0.086
   Eu(HCO3)+2             3.175e-07   1.441e-07    -6.498    -6.841    -0.343
   EuBr+2                 1.893e-07   8.590e-08    -6.723    -7.066    -0.343
   EuF2+                  1.640e-07   1.346e-07    -6.785    -6.871    -0.086
   Eu(PO4)                1.575e-07   1.575e-07    -6.803    -6.803     0.000
   EuF3                   2.946e-08   2.946e-08    -7.531    -7.531     0.000
   Eu(CO3)2-              2.780e-08   2.282e-08    -7.556    -7.642    -0.086
   Eu(HPO4)+              1.359e-08   1.115e-08    -7.867    -7.953    -0.086
   Eu(OH)3                6.280e-10   6.280e-10    -9.202    -9.202     0.000
   EuCl2+                 6.257e-11   5.137e-11   -10.204   -10.289    -0.086
   EuBr2+                 2.317e-11   1.902e-11   -10.635   -10.721    -0.086
   Eu(H2PO4)+2            1.997e-11   9.063e-12   -10.700   -11.043    -0.343
   Ca(Eu(OH)3)+2          4.894e-13   2.220e-13   -12.310   -12.654    -0.343
   Eu(PO4)2-3             2.679e-13   4.526e-14   -12.572   -13.344    -0.772
   Eu(CO3)3-3             5.759e-14   9.727e-15   -13.240   -14.012    -0.772
   Eu(HPO4)2-             2.407e-14   1.976e-14   -13.618   -13.704    -0.086
   Eu(OH)4-               2.418e-17   1.985e-17   -16.617   -16.702    -0.086
   Ca2(Eu(OH)4)+3         7.362e-20   1.244e-20   -19.133   -19.905    -0.772
   Eu(NO3)+2              1.727e-24   7.837e-25   -23.763   -24.106    -0.343
   Ca3(Eu(OH)6)+3         1.748e-33   1.748e-33   -32.757   -32.757     0.000
F                1.000e-03
   Al(OH)2F               3.661e-04   3.661e-04    -3.436    -3.436     0.000
   MnF2                   1.555e-04   1.555e-04    -3.808    -3.808     0.000
   HoF+2                  9.258e-05   4.202e-05    -4.033    -4.377    -0.343
   EuF+2                  9.162e-05   4.158e-05    -4.038    -4.381    -0.343
   SmF+2                  7.241e-05   3.286e-05    -4.140    -4.483    -0.343
   F-                     2.376e-05   1.950e-05    -4.624    -4.710    -0.086
   CmF+2                  9.317e-06   4.227e-06    -5.031    -5.374    -0.343
   AmF+2                  9.314e-06   4.227e-06    -5.031    -5.374    -0.343
   AlF2+                  4.467e-06   3.666e-06    -5.350    -5.436    -0.086
   MnF3-                  1.472e-06   1.208e-06    -5.832    -5.918    -0.086
   Al(OH)2F2-             1.444e-06   1.185e-06    -5.840    -5.926    -0.086
   AlF+2                  1.251e-06   5.677e-07    -5.903    -6.246    -0.343
   AlF3                   8.024e-07   8.024e-07    -6.096    -6.096     0.000
   MgF+                   6.687e-07   5.488e-07    -6.175    -6.261    -0.086
   CoF+                   3.328e-07   2.732e-07    -6.478    -6.564    -0.086
   NiF+                   2.556e-07   2.098e-07    -6.592    -6.678    -0.086
   NpO2F                  2.516e-07   2.516e-07    -6.599    -6.599     0.000
   EuF2+                  1.640e-07   1.346e-07    -6.785    -6.871    -0.086
   HoF2+                  1.547e-07   1.269e-07    -6.811    -6.896    -0.086
   RbF                    1.394e-07   1.394e-07    -6.856    -6.856     0.000
   SmF2+                  1.296e-07   1.064e-07    -6.887    -6.973    -0.086
   CmF3                   9.689e-08   9.689e-08    -7.014    -7.014     0.000
   CaF+                   9.214e-08   7.562e-08    -7.036    -7.121    -0.086
   PbF+                   8.928e-08   7.329e-08    -7.049    -7.135    -0.086
   CrF+2                  6.863e-08   3.113e-08    -7.164    -7.507    -0.343
   MnF+                   6.274e-08   5.149e-08    -7.202    -7.288    -0.086
   HfF4                   5.853e-08   5.853e-08    -7.233    -7.233     0.000
   UO2F+                  5.041e-08   4.138e-08    -7.297    -7.383    -0.086
   AmF3                   4.230e-08   4.230e-08    -7.374    -7.374     0.000
   FeF+                   4.106e-08   3.370e-08    -7.387    -7.472    -0.086
   RaF+                   3.089e-08   2.535e-08    -7.510    -7.596    -0.086
   EuF3                   2.946e-08   2.946e-08    -7.531    -7.531     0.000
   BaF+                   2.586e-08   2.122e-08    -7.587    -7.673    -0.086
   CmF2+                  2.523e-08   2.071e-08    -7.598    -7.684    -0.086
   AmF2+                  2.523e-08   2.071e-08    -7.598    -7.684    -0.086
   SrF+                   2.110e-08   1.732e-08    -7.676    -7.762    -0.086
   CrF2+                  9.315e-09   7.645e-09    -8.031    -8.117    -0.086
   CsF                    6.666e-09   6.666e-09    -8.176    -8.176     0.000
   NaF                    5.669e-09   5.669e-09    -8.247    -8.247     0.000
   AlF4-                  4.574e-09   3.754e-09    -8.340    -8.425    -0.086
   UO2F2                  3.775e-09   3.775e-09    -8.423    -8.423     0.000
   MnF4-2                 2.988e-09   1.355e-09    -8.525    -8.868    -0.343
   HfF3+                  1.710e-09   1.404e-09    -8.767    -8.853    -0.086
   BF(OH)3-               1.197e-09   9.825e-10    -8.922    -9.008    -0.086
   CrF3                   5.936e-11   5.936e-11   -10.227   -10.227     0.000
   AlOHF2                 1.879e-11   1.879e-11   -10.726   -10.726     0.000
   SrF2                   1.773e-11   1.773e-11   -10.751   -10.751     0.000
   UO2F3-                 1.054e-11   8.650e-12   -10.977   -11.063    -0.086
   FeF+2                  9.793e-12   4.443e-12   -11.009   -11.352    -0.343
   HfF2+2                 9.341e-12   4.238e-12   -11.030   -11.373    -0.343
   PbF2                   7.856e-12   7.856e-12   -11.105   -11.105     0.000
   ThF2+2                 5.155e-12   2.340e-12   -11.288   -11.631    -0.343
   FeF2+                  4.938e-12   4.053e-12   -11.306   -11.392    -0.086
   MnF5-3                 3.123e-12   5.275e-13   -11.505   -12.278    -0.772
   PuO2F                  2.910e-12   2.910e-12   -11.536   -11.536     0.000
   ThF+3                  1.353e-12   2.286e-13   -11.869   -12.641    -0.772
   ThF3+                  8.414e-13   6.907e-13   -12.075   -12.161    -0.086
   BF2(OH)2-              2.504e-13   2.055e-13   -12.601   -12.687    -0.086
   FeF3                   1.253e-13   1.253e-13   -12.902   -12.902     0.000
   ThF4                   9.986e-15   9.986e-15   -14.001   -14.001     0.000
   HfF+3                  3.543e-15   5.984e-16   -14.451   -15.223    -0.772
   UO2F4-2                3.241e-15   1.469e-15   -14.489   -14.833    -0.344
   MnF6-4                 1.532e-15   6.492e-17   -14.815   -16.188    -1.373
   PuF2+2                 1.116e-16   5.065e-17   -15.952   -16.295    -0.343
   PuF3+                  3.094e-17   2.539e-17   -16.510   -16.595    -0.086
   PuF+3                  2.122e-18   3.585e-19   -17.673   -18.446    -0.772
   NpF4                   1.705e-18   1.705e-18   -17.768   -17.768     0.000
   NpF2+2                 5.553e-19   2.520e-19   -18.255   -18.599    -0.343
   BF3(OH)-               5.358e-19   4.397e-19   -18.271   -18.357    -0.086
   NpO2F+                 1.847e-19   1.516e-19   -18.734   -18.819    -0.086
   NpF3+                  1.341e-19   1.100e-19   -18.873   -18.958    -0.086
   ZrF4                   1.874e-20   1.874e-20   -19.727   -19.727     0.000
   NpF+3                  1.392e-20   2.351e-21   -19.856   -20.629    -0.772
   ZrF5-                  1.376e-20   1.129e-20   -19.861   -19.947    -0.086
   PuO2F+                 1.229e-20   1.009e-20   -19.910   -19.996    -0.086
   ZrF3+                  4.768e-21   3.913e-21   -20.322   -20.407    -0.086
   NpO2F2                 3.169e-21   3.169e-21   -20.499   -20.499     0.000
   ZrF6-2                 1.572e-21   7.128e-22   -20.804   -21.147    -0.343
   ZrF2+2                 2.990e-22   1.357e-22   -21.524   -21.868    -0.343
   PuO2F2                 9.640e-23   9.640e-23   -22.016   -22.016     0.000
   BF4-                   4.260e-24   3.496e-24   -23.371   -23.456    -0.086
   PuO2F3-                5.012e-25   4.113e-25   -24.300   -24.386    -0.086
   SbF3                   2.794e-25   2.794e-25   -24.554   -24.554     0.000
   ZrF+3                  2.584e-26   2.584e-26   -25.588   -25.588     0.000
   SbF2+                  2.377e-26   2.377e-26   -25.624   -25.624     0.000
   SbF+2                  1.086e-27   1.086e-27   -26.964   -26.964     0.000
   UF3+                   9.280e-28   9.280e-28   -27.032   -27.032     0.000
   UF4                    5.101e-28   5.101e-28   -27.292   -27.292     0.000
   UF2+2                  2.226e-28   2.226e-28   -27.653   -27.653     0.000
   UF+3                   8.266e-31   8.266e-31   -30.083   -30.083     0.000
   UF5-                   2.442e-31   2.442e-31   -30.612   -30.612     0.000
   SnF+                   6.280e-34   6.280e-34   -33.202   -33.202     0.000
   UF6-2                  5.597e-34   5.597e-34   -33.252   -33.252     0.000
   SnF2                   6.731e-36   6.731e-36   -35.172   -35.172     0.000
   SnF3-                  9.732e-39   9.732e-39   -38.012   -38.012     0.000
Fe(2)            3.880e-04
   Fe+2                   3.809e-04   1.728e-04    -3.419    -3.762    -0.343
   Fe(SO4)                5.634e-06   5.634e-06    -5.249    -5.249     0.000
   Fe(OH)+                6.653e-07   5.461e-07    -6.177    -6.263    -0.086
   Fe(CO3)                4.542e-07   4.542e-07    -6.343    -6.343     0.000
   FeCl+                  2.209e-07   1.813e-07    -6.656    -6.742    -0.086
   FeHCO3+                6.654e-08   5.461e-08    -7.177    -7.263    -0.086
   FeF+                   4.106e-08   3.370e-08    -7.387    -7.472    -0.086
   Fe(NH3)+2              9.484e-09   4.302e-09    -8.023    -8.366    -0.343
   FeCO3OH-               1.054e-09   8.649e-10    -8.977    -9.063    -0.086
   Fe(HPO4)               1.535e-10   1.535e-10    -9.814    -9.814     0.000
   Fe(OH)2                4.335e-11   4.335e-11   -10.363   -10.363     0.000
   Fe(H2PO4)+             3.731e-11   3.062e-11   -10.428   -10.514    -0.086
   FeCl2                  3.016e-11   3.016e-11   -10.521   -10.521     0.000
   Fe(HSO4)+              5.089e-12   4.176e-12   -11.293   -11.379    -0.086
   FeCl3-                 9.687e-13   7.950e-13   -12.014   -12.100    -0.086
   Fe(CO3)2-2             3.092e-13   1.403e-13   -12.510   -12.853    -0.343
   Fe(NH3)2+2             7.468e-14   3.388e-14   -13.127   -13.470    -0.343
   Fe(OH)3-               2.645e-15   2.171e-15   -14.578   -14.663    -0.086
   Fe(SeO4)               2.715e-19   2.715e-19   -18.566   -18.566     0.000
   Fe(OH)4-2              3.799e-22   1.723e-22   -21.420   -21.764    -0.343
   Fe(NH3)4+2             3.678e-24   1.669e-24   -23.434   -23.778    -0.343
   Fe(HS)+                0.000e+00   0.000e+00   -64.418   -64.418     0.000
   Fe(HS)2                0.000e+00   0.000e+00  -127.304  -127.304     0.000
Fe(3)            6.120e-04
   FeCO3OH                5.212e-04   5.212e-04    -3.283    -3.283     0.000
   Fe(OH)3                4.642e-05   4.642e-05    -4.333    -4.333     0.000
   Fe(OH)2+               4.393e-05   3.605e-05    -4.357    -4.443    -0.086
   Fe(OH)4-               5.155e-07   4.231e-07    -6.288    -6.374    -0.086
   Fe(OH)+2               2.401e-08   1.090e-08    -7.620    -7.963    -0.343
   Fe(H3SiO4)+2           2.386e-10   1.083e-10    -9.622    -9.966    -0.343
   Fe(B(OH)4)2+           2.383e-10   1.956e-10    -9.623    -9.709    -0.086
   Fe(B(OH)4)+2           8.179e-11   3.711e-11   -10.087   -10.431    -0.343
   FeF+2                  9.793e-12   4.443e-12   -11.009   -11.352    -0.343
   FeF2+                  4.938e-12   4.053e-12   -11.306   -11.392    -0.086
   Fe+3                   9.996e-13   1.689e-13   -12.000   -12.772    -0.772
   Fe(SO4)+               5.329e-13   4.373e-13   -12.273   -12.359    -0.086
   Fe(CO3)3-3             2.686e-13   4.536e-14   -12.571   -13.343    -0.772
   FeF3                   1.253e-13   1.253e-13   -12.902   -12.902     0.000
   Fe(SeO3)+              9.769e-14   8.017e-14   -13.010   -13.096    -0.086
   Fe2(OH)2+4             7.542e-14   3.195e-15   -13.123   -14.496    -1.373
   Fe(HPO4)+              3.175e-14   2.606e-14   -13.498   -13.584    -0.086
   FeCl+2                 7.108e-15   3.225e-15   -14.148   -14.492    -0.343
   Fe3(OH)4+5             3.363e-15   2.407e-17   -14.473   -16.619    -2.145
   Fe(SO4)2-              2.187e-15   1.795e-15   -14.660   -14.746    -0.086
   FeBr+2                 9.036e-16   4.099e-16   -15.044   -15.387    -0.343
   FeI+2                  2.428e-16   1.102e-16   -15.615   -15.958    -0.343
   Fe(H2PO4)+2            3.542e-17   1.607e-17   -16.451   -16.794    -0.343
   FeCl2+                 1.497e-17   1.229e-17   -16.825   -16.911    -0.086
   FeBr2+                 3.835e-19   3.147e-19   -18.416   -18.502    -0.086
   FeCrO4+                3.057e-19   2.509e-19   -18.515   -18.600    -0.086
   Fe(HSeO3)+2            2.801e-19   1.271e-19   -18.553   -18.896    -0.343
   FeHSO4+2               2.260e-19   1.025e-19   -18.646   -18.989    -0.343
   FeCl3                  1.001e-21   1.001e-21   -21.000   -21.000     0.000
   FeCl4-                 9.148e-27   9.148e-27   -26.039   -26.039     0.000
   Fe(NO3)+2              1.875e-33   1.875e-33   -32.727   -32.727     0.000
   FeS2O3+                0.000e+00   0.000e+00   -79.685   -79.685     0.000
H(0)             1.664e-25
   H2                     8.318e-26   8.318e-26   -25.080   -25.080     0.000
Hf               1.000e-03
   Hf(OH)4                9.904e-04   9.904e-04    -3.004    -3.004     0.000
   Hf(OH)5-               9.579e-06   7.862e-06    -5.019    -5.104    -0.086
   HfF4                   5.853e-08   5.853e-08    -7.233    -7.233     0.000
   Hf(CO3)4-4             2.448e-09   1.037e-10    -8.611    -9.984    -1.373
   HfF3+                  1.710e-09   1.404e-09    -8.767    -8.853    -0.086
   Hf(OH)6-2              5.476e-11   2.484e-11   -10.262   -10.605    -0.343
   HfF2+2                 9.341e-12   4.238e-12   -11.030   -11.373    -0.343
   Hf(OH)+3               5.874e-13   9.923e-14   -12.231   -13.003    -0.772
   HfF+3                  3.543e-15   5.984e-16   -14.451   -15.223    -0.772
   Hf(SO4)2               8.580e-18   8.580e-18   -17.066   -17.066     0.000
   HfSO4+2                8.193e-18   3.717e-18   -17.087   -17.430    -0.343
   Hf+4                   3.714e-19   1.574e-20   -18.430   -19.803    -1.373
   HfCl+3                 1.123e-20   1.896e-21   -19.950   -20.722    -0.772
   HfBr+3                 1.082e-22   1.828e-23   -21.966   -22.738    -0.772
   HfCl2+2                2.249e-24   1.021e-24   -23.648   -23.991    -0.343
   HfI+3                  8.539e-26   8.539e-26   -25.069   -25.069     0.000
   HfNO3+3                1.388e-39   1.388e-39   -38.858   -38.858     0.000
   Hf(NO3)2+2             0.000e+00   0.000e+00   -59.122   -59.122     0.000
Hg(1)            1.379e-10
   Hg2+2                  6.894e-11   3.128e-11   -10.161   -10.505    -0.343
Hg(2)            1.000e-03
   HgSe                   1.000e-03   1.000e-03    -3.000    -3.000     0.000
   Hg+2                   4.963e-17   2.252e-17   -16.304   -16.647    -0.343
   Hg(SeO3)2-2            3.971e-25   1.802e-25   -24.401   -24.744    -0.343
   HgSe2-2                1.251e-32   1.251e-32   -31.903   -31.903     0.000
Ho               1.000e-03
   Ho+3                   5.962e-04   1.008e-04    -3.225    -3.997    -0.772
   HoSiO(OH)3+2           1.491e-04   6.765e-05    -3.826    -4.170    -0.343
   HoF+2                  9.258e-05   4.202e-05    -4.033    -4.377    -0.343
   Ho(CO3)+               6.588e-05   5.408e-05    -4.181    -4.267    -0.086
   Ho(SO4)+               6.343e-05   5.207e-05    -4.198    -4.283    -0.086
   Ho(OH)+2               2.795e-05   1.268e-05    -4.554    -4.897    -0.343
   Ho(OH)2+               2.448e-06   2.008e-06    -5.611    -5.697    -0.086
   HoCl+2                 9.276e-07   4.210e-07    -6.033    -6.376    -0.343
   Ho(SO4)2-              4.128e-07   3.388e-07    -6.384    -6.470    -0.086
   Ho(PO4)                3.997e-07   3.997e-07    -6.398    -6.398     0.000
   Ho(HCO3)+2             3.770e-07   1.710e-07    -6.424    -6.767    -0.343
   HoF2+                  1.547e-07   1.269e-07    -6.811    -6.896    -0.086
   Ho(CO3)2-              7.057e-08   5.791e-08    -7.151    -7.237    -0.086
   Ho(HPO4)+              1.728e-08   1.418e-08    -7.762    -7.848    -0.086
   Ho(OH)3                6.346e-10   6.346e-10    -9.198    -9.198     0.000
   HoCl2+                 3.638e-11   2.987e-11   -10.439   -10.525    -0.086
   Ho(H2PO4)+2            1.603e-11   7.274e-12   -10.795   -11.138    -0.343
   Ho(PO4)2-3             1.182e-12   1.996e-13   -11.927   -12.700    -0.772
   Ca(Ho(OH)3)+2          4.946e-13   2.244e-13   -12.306   -12.649    -0.343
   Ho(CO3)3-3             5.819e-14   9.829e-15   -13.235   -14.007    -0.772
   Ho(HPO4)2-             4.853e-14   3.983e-14   -13.314   -13.400    -0.086
   Ho(OH)4-               2.443e-17   2.005e-17   -16.612   -16.698    -0.086
   Ca2(Ho(OH)4)+3         7.439e-20   1.257e-20   -19.128   -19.901    -0.772
   Ho(NO3)+2              8.745e-25   3.969e-25   -24.058   -24.401    -0.343
   Ca3(Ho(OH)6)+3         1.767e-33   1.767e-33   -32.753   -32.753     0.000
I(-1)            1.000e-03
   AgI                    3.726e-04   3.726e-04    -3.429    -3.429     0.000
   AgI2-                  3.102e-04   2.545e-04    -3.508    -3.594    -0.086
   I-                     6.313e-06   5.182e-06    -5.200    -5.286    -0.086
   CdI+                   3.199e-07   2.626e-07    -6.495    -6.581    -0.086
   AgI3-2                 1.105e-07   5.015e-08    -6.956    -7.300    -0.343
   CsI                    4.767e-08   4.767e-08    -7.322    -7.322     0.000
   PbI+                   1.217e-08   9.987e-09    -7.915    -8.001    -0.086
   PdI+                   7.926e-09   6.505e-09    -8.101    -8.187    -0.086
   MgI+                   4.262e-09   3.497e-09    -8.370    -8.456    -0.086
   MnI+                   3.999e-09   3.282e-09    -8.398    -8.484    -0.086
   CaI+                   3.880e-09   3.184e-09    -8.411    -8.497    -0.086
   SrI+                   3.879e-09   3.183e-09    -8.411    -8.497    -0.086
   RbI                    6.146e-10   6.146e-10    -9.211    -9.211     0.000
   PdI2                   4.243e-10   4.243e-10    -9.372    -9.372     0.000
   PdI4-2                 3.467e-10   1.573e-10    -9.460    -9.803    -0.343
   NaI                    1.282e-10   1.282e-10    -9.892    -9.892     0.000
   KI                     1.143e-10   1.143e-10    -9.942    -9.942     0.000
   CdI2                   3.663e-11   3.663e-11   -10.436   -10.436     0.000
   PdI3-                  3.373e-11   2.768e-11   -10.472   -10.558    -0.086
   PbI2                   7.655e-13   7.655e-13   -12.116   -12.116     0.000
   PuI+2                  1.870e-13   8.489e-14   -12.728   -13.071    -0.343
   MgI2                   1.283e-14   1.283e-14   -13.892   -13.892     0.000
   CaI2                   1.141e-14   1.141e-14   -13.943   -13.943     0.000
   SrI2                   1.090e-14   1.090e-14   -13.963   -13.963     0.000
   CdI3-                  3.049e-15   2.502e-15   -14.516   -14.602    -0.086
   FeI+2                  2.428e-16   1.102e-16   -15.615   -15.958    -0.343
   PbI3-                  2.209e-17   1.813e-17   -16.656   -16.742    -0.086
   CdI4-2                 1.977e-19   8.970e-20   -18.704   -19.047    -0.343
   PbI4-2                 1.804e-22   8.183e-23   -21.744   -22.087    -0.343
   HfI+3                  8.539e-26   8.539e-26   -25.069   -25.069     0.000
   I3-                    9.407e-27   9.407e-27   -26.027   -26.027     0.000
   PuI+3                  5.739e-27   5.739e-27   -26.241   -26.241     0.000
   IO-                    5.179e-28   5.179e-28   -27.286   -27.286     0.000
   NpI+3                  2.166e-29   2.166e-29   -28.664   -28.664     0.000
   ICl2-                  4.747e-31   4.747e-31   -30.324   -30.324     0.000
   SnI+                   9.169e-38   9.169e-38   -37.038   -37.038     0.000
   UI+3                   1.485e-39   1.485e-39   -38.828   -38.828     0.000
   SnI2                   0.000e+00   0.000e+00   -41.373   -41.373     0.000
   UO2IO3+                0.000e+00   0.000e+00   -56.680   -56.680     0.000
   IO4-                   0.000e+00   0.000e+00   -82.267   -82.267     0.000
   UO2(IO3)2              0.000e+00   0.000e+00  -105.946  -105.946     0.000
I(5)             0.000e+00
   IO3-                   0.000e+00   0.000e+00   -50.846   -50.846     0.000
   Mn(IO3)+               0.000e+00   0.000e+00   -53.435   -53.435     0.000
   Mg(IO3)+               0.000e+00   0.000e+00   -53.497   -53.497     0.000
   Ca(IO3)+               0.000e+00   0.000e+00   -53.798   -53.798     0.000
   Sr(IO3)+               0.000e+00   0.000e+00   -53.868   -53.868     0.000
   Na(IO3)                0.000e+00   0.000e+00   -53.873   -53.873     0.000
   K(IO3)                 0.000e+00   0.000e+00   -53.913   -53.913     0.000
   Al(IO3)+2              0.000e+00   0.000e+00   -56.902   -56.902     0.000
   Mn(IO3)2               0.000e+00   0.000e+00  -104.991  -104.991     0.000
   Sr(IO3)2               0.000e+00   0.000e+00  -105.594  -105.594     0.000
   Al(IO3)2+              0.000e+00   0.000e+00  -105.909  -105.909     0.000
K                1.000e-03
   K+                     9.982e-04   8.192e-04    -3.001    -3.087    -0.086
   K(SO4)-                1.558e-06   1.279e-06    -5.807    -5.893    -0.086
   KCl                    1.970e-07   1.970e-07    -6.706    -6.706     0.000
   KAl(OH)4               1.501e-08   1.501e-08    -7.824    -7.824     0.000
   KI                     1.143e-10   1.143e-10    -9.942    -9.942     0.000
   K(OH)                  2.839e-11   2.839e-11   -10.547   -10.547     0.000
   K(HPO4)-               1.438e-12   1.180e-12   -11.842   -11.928    -0.086
   KH2PO4                 8.164e-13   8.164e-13   -12.088   -12.088     0.000
   KPO4-2                 3.590e-17   1.629e-17   -16.445   -16.788    -0.343
   K(NO3)                 7.224e-25   7.224e-25   -24.141   -24.141     0.000
   K(IO3)                 0.000e+00   0.000e+00   -53.913   -53.913     0.000
Li               1.000e-03
   Li+                    1.000e-03   8.207e-04    -3.000    -3.086    -0.086
Mg               1.000e-03
   Mg+2                   9.825e-04   4.459e-04    -3.008    -3.351    -0.343
   Mg(SO4)                1.558e-05   1.558e-05    -4.807    -4.807     0.000
   MgCl+                  9.248e-07   7.590e-07    -6.034    -6.120    -0.086
   MgF+                   6.687e-07   5.488e-07    -6.175    -6.261    -0.086
   MgBr+                  1.907e-07   1.565e-07    -6.720    -6.806    -0.086
   Mg(HCO3)+              6.836e-08   5.610e-08    -7.165    -7.251    -0.086
   MgB(OH)4+              1.250e-08   1.026e-08    -7.903    -7.989    -0.086
   Mg(OH)+                1.134e-08   9.311e-09    -7.945    -8.031    -0.086
   MgI+                   4.262e-09   3.497e-09    -8.370    -8.456    -0.086
   Mg(CO3)                2.286e-09   2.286e-09    -8.641    -8.641     0.000
   Mg(NH3)+2              1.544e-09   7.006e-10    -8.811    -9.155    -0.343
   Mg(H3SiO4)+            4.000e-10   3.283e-10    -9.398    -9.484    -0.086
   Mg(HPO4)               8.086e-11   8.086e-11   -10.092   -10.092     0.000
   Mg(H2PO4)+             2.908e-12   2.386e-12   -11.536   -11.622    -0.086
   Mg(PO4)-               3.833e-14   3.146e-14   -13.416   -13.502    -0.086
   MgI2                   1.283e-14   1.283e-14   -13.892   -13.892     0.000
   Mg(NH3)2+2             1.531e-15   6.945e-16   -14.815   -15.158    -0.343
   Mg(SeO4)               2.165e-19   2.165e-19   -18.664   -18.664     0.000
   Mg(NH3)3+2             9.575e-22   4.344e-22   -21.019   -21.362    -0.343
   Mg4(OH)4+4             1.656e-24   7.014e-26   -23.781   -25.154    -1.373
   Mg(NH3)4+2             1.082e-28   1.082e-28   -27.966   -27.966     0.000
   Mg(IO3)+               0.000e+00   0.000e+00   -53.497   -53.497     0.000
   Mg(S2O3)               0.000e+00   0.000e+00   -72.343   -72.343     0.000
Mn               1.000e-03
   Mn+2                   8.217e-04   3.729e-04    -3.085    -3.428    -0.343
   MnF2                   1.555e-04   1.555e-04    -3.808    -3.808     0.000
   Mn(SO4)                1.364e-05   1.364e-05    -4.865    -4.865     0.000
   Mn(CO3)                6.329e-06   6.329e-06    -5.199    -5.199     0.000
   MnF3-                  1.472e-06   1.208e-06    -5.832    -5.918    -0.086
   MnCl+                  6.892e-07   5.657e-07    -6.162    -6.247    -0.086
   MnBr+                  2.969e-07   2.437e-07    -6.527    -6.613    -0.086
   Mn(OH)+                1.167e-07   9.579e-08    -6.933    -7.019    -0.086
   Mn(HCO3)+              9.934e-08   8.153e-08    -7.003    -7.089    -0.086
   MnF+                   6.274e-08   5.149e-08    -7.202    -7.288    -0.086
   Mn(NH3)+2              5.141e-09   2.332e-09    -8.289    -8.632    -0.343
   MnI+                   3.999e-09   3.282e-09    -8.398    -8.484    -0.086
   MnF4-2                 2.988e-09   1.355e-09    -8.525    -8.868    -0.343
   Mn(HPO4)               7.414e-10   7.414e-10    -9.130    -9.130     0.000
   Mn2(OH)+3              6.535e-10   1.104e-10    -9.185    -9.957    -0.772
   MnCl2                  3.833e-10   3.833e-10    -9.416    -9.416     0.000
   Mn2(OH)3+              2.129e-11   1.747e-11   -10.672   -10.758    -0.086
   MnF5-3                 3.123e-12   5.275e-13   -11.505   -12.278    -0.772
   Mn(OH)2                2.350e-12   2.350e-12   -11.629   -11.629     0.000
   MnCl3-                 9.779e-14   8.025e-14   -13.010   -13.096    -0.086
   Mn(NH3)2+2             2.029e-14   9.205e-15   -13.693   -14.036    -0.343
   MnF6-4                 1.532e-15   6.492e-17   -14.815   -16.188    -1.373
   Mn(HPO4)2-2            8.162e-18   3.703e-18   -17.088   -17.431    -0.343
   Mn(OH)3-               7.187e-18   5.899e-18   -17.143   -17.229    -0.086
   Mn(SeO4)               3.075e-19   3.075e-19   -18.512   -18.512     0.000
   Mn(OH)4-2              4.109e-24   1.864e-24   -23.386   -23.730    -0.343
   Mn(NO3)+               8.181e-25   6.714e-25   -24.087   -24.173    -0.086
   Mn+3                   6.822e-25   1.152e-25   -24.166   -24.938    -0.772
   Mn(NO3)2               0.000e+00   0.000e+00   -44.738   -44.738     0.000
   MnO4-3                 0.000e+00   0.000e+00   -48.430   -48.430     0.000
   MnO4-2                 0.000e+00   0.000e+00   -49.830   -49.830     0.000
   Mn(IO3)+               0.000e+00   0.000e+00   -53.435   -53.435     0.000
   MnO4-                  0.000e+00   0.000e+00   -55.210   -55.210     0.000
   Mn(S2O3)               0.000e+00   0.000e+00   -72.340   -72.340     0.000
   Mn(IO3)2               0.000e+00   0.000e+00  -104.991  -104.991     0.000
Mo               1.000e-03
   MoO4-2                 9.993e-04   4.534e-04    -3.000    -3.344    -0.343
[...]
	Mg(NO3)2(s)     -60.66  -45.16   15.50  Mg(NO3)2
	Mg(NO3)2:6H2O(s) -47.74  -45.16    2.58  Mg(NO3)2:6H2O
	Mg(SeO3):6H2O(s)  -9.01  -14.83   -5.82  Mg(SeO3):6H2O
	Mg(SeO4):6H2O(s) -19.73  -20.87   -1.13  Mg(SeO4):6H2O
	Mg(SO4)(s)      -16.14   -7.04    9.10  Mg(SO4)
	Mg(SO4):H2O(s)   -6.92   -7.04   -0.12  Mg(SO4):H2O
	Mg-Montmorillonite-Ca   3.06    8.13    5.07  Ca0.17Mg0.33Al1.68Si3.99O10(OH)2
	Mg-Montmorillonite-Ca(hydrated)   1.54    8.13    6.59  Ca0.17Mg0.33Al1.68Si3.99O10(OH)2:5H2O
	Mg-Montmorillonite-K   4.61    7.44    2.83  K0.33Mg0.33Al1.67Si4O10(OH)2
	Mg-Montmorillonite-K(hydrated)   1.35    7.44    6.09  K0.33Mg0.33Al1.67Si4O10(OH)2:5H2O
	Mg-Montmorillonite-Mg   3.65    8.13    4.48  Mg0.17Mg0.33Al1.68Si3.99O10(OH)2
	Mg-Montmorillonite-Mg(hydrated)   2.09    8.13    6.04  Mg0.17Mg0.33Al1.68Si3.99O10(OH)2:5H2O
	Mg-Montmorillonite-Na   3.11    7.44    4.33  Na0.33Mg0.33Al1.67Si4O10(OH)2
	Mg-Montmorillonite-Na(hydrated)   1.04    7.44    6.40  Na0.33Mg0.33Al1.67Si4O10(OH)2:5H2O
	Mg-oxychlorur   -14.85   11.18   26.03  Mg2Cl(OH)3:4H2O
	Mg3(PO4)2(cr)   -16.76   -0.94   15.82  Mg3(PO4)2
	Mg3(PO4)2:22H2O(s) -16.94   -0.94   16.00  Mg3(PO4)2:22H2O
	Mg3(PO4)2:8H2O(s) -14.84   -0.94   13.90  Mg3(PO4)2:8H2O
	Mg5(CO3)4(OH)2:4H2O(s) -25.53  -35.84  -10.31  Mg5(CO3)4(OH)2:4H2O
	MgBr2(s)        -37.78   -9.98   27.80  MgBr2
	MgBr2:6H2O(s)   -15.20   -9.98    5.22  MgBr2:6H2O
	MgCl2(s)        -31.62   -9.59   22.03  MgCl2
	MgCl2:2H2O(s)   -22.49   -9.59   12.90  MgCl2:2H2O
	MgCl2:4H2O(s)   -17.03   -9.59    7.44  MgCl2:4H2O
	MgCl2:H2O(s)    -25.81   -9.59   16.22  MgCl2:H2O
	MgCrO4(s)        70.01  -16.98  -86.99  MgCrO4
	MgF2(cr)         -3.55  -12.77   -9.22  MgF2
	MgI2(s)         -48.92  -13.92   35.00  MgI2
	MgMoO4(s)        -6.05   -6.69   -0.64  MgMoO4
	Microcline        2.69    2.74    0.05  KAlSi3O8
	Millerite       -51.26  -61.39  -10.13  NiS
	Minium          -23.62   49.91   73.53  Pb3O4
	Mirabilite       -8.63   -9.86   -1.23  Na2SO4:10H2O
	Mn(H2SiO4)(s)    -6.42    6.02   12.44  Mn(H2SiO4)
	Mn(HPO4)(s)      -0.13   -5.87   -5.74  Mn(HPO4)
	Mn(SeO3):2H2O(cr)  -7.30  -14.90   -7.60  Mn(SeO3):2H2O
	Mn(SO4)(s)       -4.44   -7.12   -2.68  Mn(SO4)
	Mn3(PO4)2(s)    -16.49   -1.17   15.32  Mn3(PO4)2
	Mn3(PO4)2:3H2O(s)  -3.49   -1.17    2.32  Mn3(PO4)2:3H2O
	MnCl2:2H2O(s)   -13.65   -9.67    3.98  MnCl2:2H2O
	MnCl2:4H2O(s)   -12.38   -9.67    2.71  MnCl2:4H2O
	MnCl2:H2O(s)    -15.20   -9.67    5.53  MnCl2:H2O
	MnO(s)           -7.33   10.57   17.90  MnO
	MnO2(s)          -9.43   32.57   42.00  MnO2
	MnSe(alfa)      -27.67  -27.37    0.30  MnSe
	MnSe2(cr)       -35.16  -43.31   -8.15  MnSe2
	Mo(s)           -63.76  -83.34  -19.58  Mo
	Mo3O8(s)        -10.47  -74.03  -63.56  Mo3O8
	Monocarboaluminate -25.01   45.29   70.30  (CaO)3Al2O3:CaCO3:10.68H2O
	Monosulfate-Fe  -24.24   41.36   65.60  Ca4Fe2(SO4)(OH)12:6H2O
	Monosulfoaluminate -22.86   49.87   72.73  Ca4Al2(SO4)(OH)12:6H2O
	MoO2(s)          -9.46  -39.34  -29.88  MoO2
	MoO3(s)          -5.36  -17.34  -11.98  MoO3
	MoS2(s)        -113.42 -183.33  -69.91  MoS2
	MoS3(s)        -165.26 -233.33  -68.07  MoS3
	Muscovite        13.71   27.71   14.00  KAl3Si3O10(OH)2
	MX80(des)         6.36   14.71    8.35  (Ca0.01Na0.434K0.026)(Si3.612Al0.388)(Al1.608Fe0.184Fe0.038Mg0.228)O10(OH)2
	MX80(hyd1)        7.62   14.71    7.09  (Ca0.01Na0.434K0.026)(Si3.612Al0.388)(Al1.608Fe0.184Fe0.038Mg0.228)O10(OH)2:5.441H2O
	MX80(hyd2)        7.91   14.71    6.80  (Ca0.01Na0.434K0.026)(Si3.612Al0.388)(Al1.608Fe0.184Fe0.038Mg0.228)O10(OH)2:4.183H2O
	Na(cr)          -52.98   -7.09   45.89  Na
	Na(NO3)(s)      -25.08  -23.99    1.09  Na(NO3)
	Na(TcO4):4H2O(s)  -6.96   -6.17    0.79  Na(TcO4):4H2O
	Na2(CO3)(cr)    -15.56  -14.44    1.12  Na2(CO3)
	Na2B4O7(cr)     -29.06  -45.12  -16.06  Na2B4O7
	Na2B4O7:10H2O(s) -20.55  -45.13  -24.58  Na2B4O7:10H2O
	Na2CO3:7H2O(s)  -13.99  -14.45   -0.46  Na2CO3:7H2O
	Na2HPO4(cr)     -17.85   -8.61    9.24  Na2HPO4
	Na2O(cr)        -59.63    7.83   67.46  Na2O
	Na2ZrSi2O7(cr)   -8.02   -4.28    3.74  Na2ZrSi2O7
	Na2ZrSi3O9:2H2O(cr) -24.41   -8.83   15.58  Na2ZrSi3O9:2H2O
	Na2ZrSi4O11(cr)   0.18  -13.38  -13.56  Na2ZrSi4O11
	Na2ZrSi6O15:3H2O(cr) -38.95  -22.49   16.46  Na2ZrSi6O15:3H2O
	Na2ZrSiO5(cr)   -12.91    0.28   13.19  Na2ZrSiO5
	Na3PO4(cr)      -28.22   -4.70   23.52  Na3PO4
	Na4Zr2Si3O12(cr) -19.51   -4.00   15.51  Na4Zr2Si3O12
	NaAmO2CO3(s)    -26.89  -37.79  -10.90  NaAmO2CO3
	NaBO2(s)        -12.94   -9.32    3.62  NaBO2
	NaCm(CO3)2:5H2O(s)  -2.69  -23.69  -21.00  NaCm(CO3)2:5H2O
	NaEu(CO3)2:5H2O(s)  -2.73  -23.63  -20.90  NaEu(CO3)2:5H2O
	NaF(s)           -7.32   -7.80   -0.48  NaF
	NaH2PO4(cr)     -14.83  -12.53    2.30  NaH2PO4
	Nahcolite        -7.62  -18.36  -10.74  Na(HCO3)
	NaHo(CO3)2:5H2O(s)  -3.13  -23.63  -20.50  NaHo(CO3)2:5H2O
	NaNbO3(s)        -2.53   -6.19   -3.66  NaNbO3
	NaSm(CO3)2:5H2O(s)  -2.62  -23.61  -20.99  NaSm(CO3)2:5H2O
	Natron          -13.62  -14.45   -0.83  Na2(CO3):10H2O
	Nb(cr)         -106.92  -65.10   41.82  Nb
	Nb2O5(s)          8.18  -20.20  -28.38  Nb2O5
	Nesquehonite     -6.52  -11.62   -5.10  Mg(CO3):3H2O
	Ni(BO2)2(s)      -7.17  -15.87   -8.70  Ni(BO2)2
	Ni(CO3):5.5H2O(cr)  -4.15  -11.67   -7.52  Ni(CO3):5.5H2O
	Ni(IO3)2(beta) -100.66 -105.09   -4.43  Ni(IO3)2
	Ni(IO3)2:2H2O(cr) -99.95 -105.09   -5.14  Ni(IO3)2:2H2O
	Ni(OH)2(s)       -0.43   10.60   11.03  Ni(OH)2
	Ni(s)           -19.42  -11.40    8.02  Ni
	Ni(SeO3):2H2O(cr)  -9.07  -14.87   -5.80  Ni(SeO3):2H2O
	Ni(SeO4):6H2O(s) -19.53  -20.91   -1.38  Ni(SeO4):6H2O
	Ni(SO4)(cr)     -11.83   -7.08    4.75  Ni(SO4)
	Ni(SO4):6H2O(s)  -4.84   -7.09   -2.25  Ni(SO4):6H2O
	Ni(SO4):7H2O(s)  -4.82   -7.09   -2.27  Ni(SO4):7H2O
	Ni0.88Se(cr)    -13.21  -25.97  -12.76  Ni0.88Se
	Ni3(AsO3)2(s)   -18.94  -70.42  -51.48  Ni3(AsO3)2
	Ni3(AsO4)2:8H2O(s)   1.68  -26.42  -28.10  Ni3(AsO4)2:8H2O
	Ni3(PO4)2(cr)   -11.33   -1.08   10.25  Ni3(PO4)2
	NiBr2(s)        -20.20  -10.03   10.17  NiBr2
	NiCl2(s)        -18.31   -9.64    8.67  NiCl2
	NiCl2:2H2O(s)   -14.56   -9.64    4.92  NiCl2:2H2O
	NiCl2:4H2O(s)   -13.46   -9.64    3.82  NiCl2:4H2O
	NiCl2:6H2O(s)   -12.68   -9.64    3.04  NiCl2:6H2O
	NiF2(s)         -12.64  -12.82   -0.18  NiF2
	NiI2(s)         -23.58  -13.97    9.61  NiI2
	NiSe2(cr)       -16.38  -43.28  -26.90  NiSe2
	Np(CO3)(OH)(s)  -20.39  -26.45   -6.06  Np(CO3)(OH)
	Np(cr)         -127.03  -37.18   89.85  Np
	Np(HPO4)2(s)    -13.70  -29.76  -16.06  Np(HPO4)2
	Np(OH)3(s)      -22.18   -4.18   18.00  Np(OH)3
	Np2O5(cr)         4.12    7.82    3.70  Np2O5
	NpO2(CO3)(s)    -12.35  -26.95  -14.60  NpO2(CO3)
	NpO2(CO3)2Na3(s) -14.67  -28.89  -14.22  NpO2(CO3)2Na3
	NpO2(CO3)Na:3.5H2O(s)  -3.45  -14.45  -11.00  NpO2(CO3)Na:3.5H2O
	NpO2(NH4)4(CO3)3(s) -68.30  -95.11  -26.81  NpO2(NH4)4(CO3)3
	NpO2(s)          12.87    3.12   -9.75  NpO2
	NpO2:2H2O(am)     3.82    3.12   -0.70  NpO2:2H2O
	NpO2OH(am,aged)  -0.79    3.91    4.70  NpO2OH
	NpO2OH(am,fresh)  -1.39    3.91    5.30  NpO2OH
	NpO3:H2O(cr)    -10.15   -4.68    5.47  NpO3:H2O
	O2(g)           -39.08  -41.98   -2.90  O2
	Okenite          -7.64    1.54    9.18  CaSi2O5:2H2O
	Orpiment       -190.75 -318.21 -127.46  As2S3
	P(cr)          -104.48  -71.44   33.04  P
	Pa(cr)         -154.32  -55.57   98.75  Pa
	Pa2O5(s)         11.31    7.31   -4.00  Pa2O5
	PaO2(s)         -12.17  -11.57    0.60  PaO2
	Paralaurionite   -1.43   -0.81    0.62  PbCl(OH)
	Pb(cr)          -16.95  -12.70    4.25  Pb
	Pb(H2PO4)2(cr)  -13.74  -23.58   -9.84  Pb(H2PO4)2
	Pb(HPO4)(s)      -2.89   -7.14   -4.25  Pb(HPO4)
	Pb(OH)2(s)       -4.21    9.30   13.51  Pb(OH)2
	Pb(SeO3)(s)      -3.67  -16.17  -12.50  Pb(SeO3)
	Pb(SeO4)(s)     -15.31  -22.21   -6.90  Pb(SeO4)
	Pb2(SiO4)(s)     -1.83   14.06   15.89  Pb2(SiO4)
	Pb3(AsO4)2(s)     5.09  -30.31  -35.40  Pb3(AsO4)2
	Pb3(PO4)2(s)      0.29   -4.97   -5.26  Pb3(PO4)2
	Pb4O(PO4)2(cr)    2.10    4.34    2.24  Pb4O(PO4)2
	PbB2O4(s)        -6.30  -17.17  -10.87  PbB2O4
	PbF2(s)          -6.59  -14.11   -7.52  PbF2
	PbI2(cr)         -7.22  -15.27   -8.05  PbI2
	PbMoO4(s)         7.76   -8.04  -15.80  PbMoO4
	PbSiO3(Glass)    -1.85    4.75    6.60  PbSiO3
	Pd(cr)           11.73  -21.30  -33.03  Pd
	Pd(OH)2(s)        2.31    0.70   -1.61  Pd(OH)2
	PdBr2(cr)        -6.62  -19.93  -13.31  PdBr2
	PdCl2(cr)       -10.34  -19.54   -9.20  PdCl2
	PdI2(cr)          2.00  -23.87  -25.87  PdI2
	PdO(s)            6.72    0.70   -6.02  PdO
	PdS(s)          -24.44  -71.30  -46.86  PdS
	PdSe(s)          11.87  -37.24  -49.11  PdSe
	Pentahydrite     -5.76   -7.04   -1.28  MgSO4:5H2O
	Periclase       -10.93   10.65   21.58  MgO
	Phosgenite      -43.80  -23.90   19.90  Pb2(CO3)Cl2
	Picromerite     -12.57  -16.90   -4.33  K2Mg(SO4)2:6H2O
	Pirssonite      -17.16  -26.07   -8.91  Na2Ca(CO3)2:2H2O
	Plattnerite     -18.30   31.30   49.60  PbO2
	Plumbogummite     0.63   13.87   13.24  PbAl3(PO4)2(OH)5
	Plumbonacrite     1.52  -40.57  -42.09  Pb10(CO3)6O(OH)6
	Polydymite     -194.91 -234.18  -39.27  Ni3S4
	Polyhalite      -17.23  -30.97  -13.74  K2MgCa2(SO4)4:2H2O
	Portlandite     -12.16   10.65   22.81  Ca(OH)2
	Pu(CO3)(OH)(s)   -4.42  -10.16   -5.74  Pu(CO3)(OH)
	Pu(cr)         -122.32  -20.89  101.43  Pu
	Pu(HPO4)2(am,hyd) -11.43  -27.46  -16.03  Pu(HPO4)2
	Pu(OH)3(cr)      -3.69   12.11   15.80  Pu(OH)3
	Pu(OH)4(am)       6.22    5.42   -0.80  Pu(OH)4
	Pu(PO4)(s,hyd)    0.71   -4.33   -5.04  Pu(PO4)
	Pu2O3(s)        -26.40   24.23   50.63  Pu2O3
	PuF4(s)         -15.35  -41.42  -26.07  PuF4
	PuO2(CO3)(s)    -13.47  -28.12  -14.65  PuO2(CO3)
	PuO2(OH)(s)      -6.03   -1.03    5.00  PuO2(OH)
	PuO2(OH)2:H2O(s) -11.35   -5.85    5.50  PuO2(OH)2:H2O
	PuO2(s)          13.45    5.42   -8.03  PuO2
	PuO2:2H2O(am)     7.79    5.42   -2.37  PuO2:2H2O
	Pyrite          -95.96 -111.75  -15.79  FeS2
	Pyrochroite      -4.73   10.57   15.30  Mn(OH)2
	Pyromorphite     12.83  -12.92  -25.75  Pb5Cl(PO4)3
	Pyromorphite-Br   6.34  -13.11  -19.45  Pb5Br(PO4)3
	Pyromorphite-F   -1.41  -14.51  -13.10  Pb5F(PO4)3
	Pyromorphite-OH   1.35   -2.80   -4.15  Pb5(OH)(PO4)3
	Pyrophillite      7.20    6.76   -0.44  Al2Si4O10(OH)2
	Pyrrhotite      -54.64  -60.23   -5.59  Fe0.87S
	Quartz           -0.81   -4.55   -3.74  SiO2
	Ra(CO3)(s)       -3.34  -11.64   -8.30  Ra(CO3)
	Ra(cr)         -109.81  -11.37   98.44  Ra
	Ra(NO3)2(s)     -42.97  -45.18   -2.21  Ra(NO3)2
	Ra(OH)2(s)      -20.36   10.63   30.99  Ra(OH)2
	Ra(SO4)(s)        3.21   -7.05  -10.26  Ra(SO4)
	RaCl2:2H2O(s)    -8.87   -9.60   -0.73  RaCl2:2H2O
	Rb(s)           -56.85   -7.09   49.76  Rb
	Rb2MoO4(s)      -12.62   -9.52    3.10  Rb2MoO4
	Realgar         -67.04 -134.10  -67.06  AsS
	Rhodochrosite    -0.57  -11.70  -11.13  Mn(CO3)
	Rhodochrosite(syn)  -1.18  -11.70  -10.52  Mn(CO3)
	Romarchite      -21.99  -19.49    2.50  SnO
	Rutherfordine    -1.34  -16.10  -14.76  (UO2)(CO3)
	S(cr)           -47.85  -83.69  -35.84  S
	Sacchite        -18.44   -9.67    8.77  MnCl2
	Sanidine          2.16    2.74    0.58  KAlSi3O8
	Saponite-Ca      -8.89   21.34   30.23  Ca0.17Mg3Al0.34Si3.66O10(OH)2
	Saponite-Ca(hydrated) -13.04   21.34   34.38  Ca0.17Mg3Al0.34Si3.66O10(OH)2:5H2O
	Saponite-K       -7.45   20.65   28.10  K0.33Mg3Al0.33Si3.67O10(OH)2
	Saponite-K(hydrated) -13.40   20.65   34.05  K0.33Mg3Al0.33Si3.67O10(OH)2:5H2O
	Saponite-Mg      -8.19   21.34   29.53  Mg3.17Al0.34Si3.66O10(OH)2
	Saponite-Mg(hydrated) -12.47   21.34   33.81  Mg3.17Al0.34Si3.66O10(OH)2:5H2O
	Saponite-Na      -8.87   20.65   29.52  Na0.33Mg3Al0.33Si3.67O10(OH)2
	Saponite-Na(hydrated) -13.65   20.65   34.30  Na0.33Mg3Al0.33Si3.67O10(OH)2:5H2O
	Sb(cr)          -28.95  -40.62  -11.67  Sb
	Sb2O5(s)         -7.33  -14.73   -7.40  Sb2O5
	Schoepite         0.21    6.17    5.96  UO3:2H2O
	Schoepite(desy)   1.17    6.17    5.00  UO3:0.9H2O
	Se(s)            -8.32  -15.94   -7.62  Se
	Se3U(cr)        -89.39 -107.66  -18.27  Se3U
	SeO3(cr)        -51.87  -31.51   20.36  SeO3
	SeU(cr)        -104.08  -66.74   37.34  SeU
	Si(cr)         -111.74  -48.55   63.19  Si
	Siderite         -1.23  -12.03  -10.80  Fe(CO3)
	SiO2(am)         -1.84   -4.55   -2.71  SiO2
	Sm(cr)         -132.60  -15.98  116.62  Sm
	Sm(OH)3(am)      -0.83   17.02   17.85  Sm(OH)3
	Sm(OH)3(s)        0.89   17.02   16.13  Sm(OH)3
	Sm2(CO3)3(s)      1.72  -32.78  -34.50  Sm2(CO3)3
	Sm2(SO4)3(s)     -9.23  -19.03   -9.80  Sm2(SO4)3
	Sm2O3(s)         -9.08   34.03   43.11  Sm2O3
	SmCl3:6H2O(s)   -18.14  -13.34    4.80  SmCl3:6H2O
	SmF3:0.5H2O(s)   -0.61  -18.11  -17.50  SmF3:0.5H2O
	SmOHCO3(cr)       4.98   -5.25  -10.23  SmOHCO3
	SmOHCO3:0.5H2O(cr)   2.06   -5.25   -7.31  SmOHCO3:0.5H2O
	SmPO4:H2O(am)     5.57    0.57   -5.00  SmPO4:H2O
	SmPO4:H2O(cr)     7.24    0.57   -6.67  SmPO4:H2O
	Sn(cr)          -46.33  -41.49    4.84  Sn
	Sn(OH)4(s)       -1.28   -2.56   -1.28  Sn(OH)4
	Sn(OH)Cl(s)     -27.19  -29.61   -2.42  Sn(OH)Cl
	SnO2(am)          4.25   -2.56   -6.81  SnO2
	SnSe(alfa)      -35.80  -57.43  -21.63  SnSe
	SnSe2(s)        -42.63  -73.38  -30.75  SnSe2
	SO2(g)          -34.37  -39.69   -5.32  SO2
	Soddyite(synt1)   3.88    7.78    3.90  (UO2)2SiO4:2H2O
	Soddyite(synt2)   1.58    7.78    6.20  (UO2)2SiO4:2H2O
	Sphaerocobaltite  -0.42  -11.62  -11.20  CoCO3
	Sr(cr)         -110.14  -11.35   98.79  Sr
	Sr(HPO4)(s)      -6.07   -5.79    0.28  Sr(HPO4)
	Sr(NO3)2(cr)    -45.56  -45.16    0.40  Sr(NO3)2
	Sr(NO3)2:2H2O(s) -45.21  -45.16    0.05  Sr(NO3)2:2H2O
	Sr(NO3)2:4H2O(s) -44.29  -45.16   -0.87  Sr(NO3)2:4H2O
	Sr(OH)2(s)      -16.86   10.65   27.51  Sr(OH)2
	Sr(OH)2:8H2O(s) -13.67   10.65   24.32  Sr(OH)2:8H2O
	Sr(SeO3)(cr)     -8.53  -14.83   -6.30  Sr(SeO3)
	Sr(SeO4)(s)     -16.52  -20.87   -4.35  Sr(SeO4)
	Sr2SiO4(s)      -26.51   16.74   43.25  Sr2SiO4
	Sr3(AsO4)2(s)   -10.20  -26.28  -16.08  Sr3(AsO4)2
	Sr3(PO4)2(s)    -11.47   -0.94   10.53  Sr3(PO4)2
	Sr5(PO4)3(OH)(s)  -3.25    3.92    7.17  Sr5(PO4)3(OH)
	SrBr2(s)        -22.48   -9.98   12.50  SrBr2
	SrBr2:6H2O(s)   -12.80   -9.98    2.82  SrBr2:6H2O
	SrBr2:H2O(s)    -18.78   -9.98    8.80  SrBr2:H2O
	SrCl2(s)        -17.71   -9.59    8.12  SrCl2
	SrCl2:2H2O(s)   -13.06   -9.59    3.47  SrCl2:2H2O
	SrCl2:6H2O(s)   -11.20   -9.59    1.61  SrCl2:6H2O
	SrCl2:H2O(s)    -14.50   -9.59    4.91  SrCl2:H2O
	SrCrO4(s)       -12.33  -16.98   -4.65  SrCrO4
	SrF2(cr)         -4.23  -12.77   -8.54  SrF2
	SrMoO4(s)        -0.11   -6.70   -6.59  SrMoO4
	SrO(cr)         -31.33   10.65   41.98  SrO
	SrS(s)          -76.03  -61.35   14.68  SrS
	SrSiO3(s)        -7.06    6.10   13.16  SrSiO3
	SrZrSi2O7(cr)    -6.66   -1.46    5.20  SrZrSi2O7
	Stibnite       -175.21 -231.24  -56.03  Sb2S3
	Stilleite       -15.24  -27.29  -12.05  ZnSe
	Stratlingite     -7.95   41.71   49.66  Ca2Al2SiO3(OH)8:4H2O
	Strontianite     -2.35  -11.62   -9.27  Sr(CO3)
	Sudoite          20.33   57.57   37.24  Mg2Al4Si3O10(OH)8
	Sylvite          -7.08   -6.21    0.87  KCl
	Syngenite        -9.45  -16.90   -7.45  K2Ca(SO4)2:6H2O
	Tachyhydrite    -46.15  -28.77   17.38  Mg2CaCl6:12H2O
	Tc(cr)          -32.57  -57.65  -25.08  Tc
	Tc2O7(s)        -35.48  -20.17   15.31  Tc2O7
	Tc2O7:H2O(s)    -34.27  -20.17   14.10  Tc2O7:H2O
	TcCO3(OH)2(s)   -16.67  -35.93  -19.26  TcCO3(OH)2
	TcO2(cr)         -4.52  -13.66   -9.14  TcO2
	TcO2:1.63H2O(s)  -5.26  -13.66   -8.40  TcO2:1.63H2O
	Th(cr)         -155.01  -31.57  123.44  Th
	Th(HPO4)2(s)     -4.34  -20.45  -16.11  Th(HPO4)2
	Th(OH)4(am)       4.23   12.43    8.20  Th(OH)4
	Thermonatrite   -14.92  -14.44    0.48  Na2(CO3):H2O
	Thernardite      -9.50   -9.86   -0.36  Na2SO4
	ThO2(mcr)         9.63   12.43    2.80  ThO2
	Tiemannite        4.84  -40.59  -45.43  HgSe
	Tobermorite-11A -39.66   25.92   65.58  Ca5Si6O16.5(OH):5H2O
	Tobermorite-14A -37.02   25.92   62.94  Ca5Si6O16.5(OH):10H2O
	Trevorite        17.66   27.06    9.40  Fe2NiO4
	Troilite        -56.45  -61.76   -5.31  FeS
	Trona           -21.42  -32.80  -11.38  Na3H(CO3)2:2H2O
	Truscottite     -57.17   19.91   77.08  Ca7Si12O29(OH)4:H2O
	U(cr)          -143.62  -50.79   92.83  U
	U(HPO4)2:4H2O(s) -23.61  -39.68  -16.07  U(HPO4)2:4H2O
	U(OH)2(SO4)(cr) -21.31  -24.48   -3.17  U(OH)2(SO4)
	U(SO4)2(cr)     -30.49  -42.17  -11.68  U(SO4)2
	U(SO4)2:4H2O(cr) -30.45  -42.17  -11.72  U(SO4)2:4H2O
	U(SO4)2:8H2O(cr) -29.40  -42.17  -12.77  U(SO4)2:8H2O
	U2O7Ba(cr)        1.58   22.97   21.39  U2O7Ba
	U2O7Ba2(cr)     -20.78   14.57   35.35  U2O7Ba2
	U2O7Na2(s)       -2.44   20.16   22.60  U2O7Na2
	UO2(CO3)3Mg2:18H2O(s) -10.34  -39.35  -29.01  UO2(CO3)3Mg2:18H2O
	UO2(CO3)3Na4(cr) -17.81  -44.99  -27.18  UO2(CO3)3Na4
	UO2(HPO4):4H2O(cr)  -5.64  -10.28   -4.64  UO2(HPO4):4H2O
	UO2(OH)2(beta)    1.24    6.17    4.93  UO2(OH)2
	UO2(SO3)(cr)    -21.31  -37.14  -15.83  UO2(SO3)
	UO2(SO4)(cr)    -13.41  -11.52    1.89  UO2(SO4)
	UO2(SO4):2.5H2O(cr)  -9.93  -11.52   -1.59  UO2(SO4):2.5H2O
	UO2(SO4):3.5H2O(cr)  -9.93  -11.52   -1.59  UO2(SO4):3.5H2O
	UO2(SO4):3H2O(cr) -10.02  -11.52   -1.50  UO2(SO4):3H2O
	UO2.25(s)        -0.29   -1.29   -1.00  UO2.25
	UO2.34(beta)      0.06    0.69    0.63  UO2.34
	UO2.67(s)         1.10    7.95    6.85  UO2.67
	UO2:2H2O(am)     -8.29   -6.79    1.50  UO2:2H2O
	UO3(alfa)        -3.35    6.17    9.52  UO3
	UO3(beta)        -2.13    6.17    8.30  UO3
	UO3Na(s)         -7.78    0.56    8.34  UO3Na
	UO4Ba(s)         -0.84   16.80   17.64  UO4Ba
	UO4Ca(cr)         0.88   16.81   15.93  UO4Ca
	UO4Li2(s)       -13.95   13.99   27.94  UO4Li2
	UO4Mg(cr)        -6.41   16.82   23.23  UO4Mg
	UO4Na2(alfa)    -16.04   13.99   30.03  UO4Na2
	UO4Na3(cr)      -47.89    8.39   56.28  UO4Na3
	UO4Sr(alfa)      -2.35   16.81   19.16  UO4Sr
	UO6Ba3(cr)      -54.62   38.08   92.70  UO6Ba3
	Uraninite        -1.94   -6.79   -4.85  UO2
	Uranophane        4.45   13.87    9.42  Ca(UO2)2(SiO3OH)2:5H2O
	US2(cr)        -148.35 -150.78   -2.43  US2
	USe2(beta)      -85.50  -82.68    2.82  USe2
	Vaesite         -93.42 -111.39  -17.97  NiS2
	Valentinite      -6.77  -15.25   -8.48  Sb2O3
	Vaterite         -3.72  -11.62   -7.90  CaCO3
	Vermiculite-Ca   -7.71   32.97   40.68  Ca0.43Mg3Si3.14Al0.86O10(OH)2
	Vermiculite-Ca(hydrated) -10.21   32.97   43.18  Ca0.43Mg3.00Si3.14Al0.86O10(OH)2:5H2O
	Vermiculite-K    -5.32   31.54   36.86  K0.85Mg3Si3.15Al0.85O10(OH)2
	Vermiculite-K(hydrated) -11.77   31.54   43.31  K0.85Mg3.00Si3.15Al0.85O10(OH)2:5H2O
	Vermiculite-Mg   -5.83   32.97   38.80  Mg0.43Mg3Si3.14Al0.86O10(OH)2
	Vermiculite-Mg(hydrated)  -8.64   32.97   41.61  Mg0.43Mg3.00Si3.14Al0.86O10(OH)2:5H2O
	Vermiculite-Na   -8.63   31.54   40.17  Na0.85Mg3Si3.15Al0.85O10(OH)2
	Vermiculite-Na(hydrated) -12.14   31.54   43.68  Na0.85Mg3.00Si3.15Al0.85O10(OH)2:5H2O
	Vivianite        -5.29   -2.17    3.12  Fe3(PO4)2:8H2O
	Witherite        -3.07  -11.63   -8.56  Ba(CO3)
	Xonotlite       -54.77   36.57   91.34  Ca6Si6O17(OH)2
	Zn(SeO4):6H2O(s) -19.32  -20.86   -1.54  Zn(SeO4):6H2O
	Zn3(AsO4)2(s)     1.20  -26.25  -27.45  Zn3(AsO4)2
	ZnB2O4(s)        -5.63  -15.82  -10.19  ZnB2O4
	Zr(cr)         -139.59  -47.00   92.59  Zr
	Zr(HPO4)2(alfa)  -3.61  -35.88  -32.27  Zr(HPO4)2
	Zr(HPO4)2:H2O(cr)  -8.80  -35.88  -27.08  Zr(HPO4)2:H2O
	Zr(OH)4(am,aged)   2.55   -3.00   -5.55  Zr(OH)4
	Zr(OH)4(am,fresh)   0.24   -3.00   -3.24  Zr(OH)4
	Zr(SO4)2(cr)    -39.61  -38.37    1.24  Zr(SO4)2
	Zr(SO4)2:4H2O(s) -30.72  -38.37   -7.65  Zr(SO4)2:4H2O
	ZrBr4(cr)       -82.78  -44.26   38.52  ZrBr4
	ZrCl(s)        -115.36  -46.12   69.24  ZrCl
	ZrCl2(s)        -96.89  -45.24   51.65  ZrCl2
	ZrCl3(s)        -85.07  -44.35   40.72  ZrCl3
	ZrCl4(s)        -72.07  -43.47   28.60  ZrCl4
	ZrF2(s)         -81.03  -48.42   32.61  ZrF2
	ZrF3(s)         -51.93  -49.13    2.80  ZrF3
	ZrF4(beta)      -22.59  -49.84  -27.25  ZrF4
	ZrI4(cr)        -96.73  -52.14   44.59  ZrI4
	ZrO2(cr)          4.00   -3.00   -7.00  ZrO2
	ZrSiO4(s)         6.81   -7.55  -14.36  ZrSiO4

------------------
End of simulation.
------------------

------------------------------------
Reading input data for simulation 2.
------------------------------------

-----------
End of run.
-----------

