   Input file: dumplon
  Output file: dumplon.out
Database file: ../database/wateq4f.dat

------------------
Reading data base.
------------------

	SOLUTION_MASTER_SPECIES
	SOLUTION_SPECIES
	PHASES
	EXCHANGE_MASTER_SPECIES
	EXCHANGE_SPECIES
	SURFACE_MASTER_SPECIES
	SURFACE_SPECIES
	RATES
	END
------------------------------------
Reading input data for simulation 1.
------------------------------------

	DATABASE ../database/wateq4f.dat
	PHASES
	Ca-Montmorillonite
	        Ca0.165Al2.33Si3.67O10(OH)2 + 12 H2O = 0.165Ca+2 + 2.33 Al(OH)4- + 3.67 H4SiO4 + 2 H+
	        log_k           -45.027
	        delta_h 58.373  kcal
	END
------------------
End of simulation.
------------------

------------------------------------
Reading input data for simulation 2.
------------------------------------

	TITLE Example 16.--Inverse modeling of Sierra springs
	SOLUTION_SPREAD
	        units mmol/L
	Number	pH	Si	Ca	Mg	Na	K	Alkalinity	S(6)	Cl	3H	S(-2)	O(0)
	1	6.2	0.273	0.078	0.029	0.134	0.028	0.328      	0.01	0.014	10	1	.1
	2	6.8	0.41	0.26	0.071	0.259	0.04	0.895    	0.025	0.03	20	2	.2
	END
-----
TITLE
-----

 Example 16.--Inverse modeling of Sierra springs

-------------------------------------------
Beginning of initial solution calculations.
-------------------------------------------

Initial solution 1.	

-----------------------------Solution composition------------------------------

	Elements           Molality       Moles

	Alkalinity        3.280e-04   3.280e-04
	Ca                7.801e-05   7.801e-05
	Cl                1.400e-05   1.400e-05
	K                 2.800e-05   2.800e-05
	Mg                2.900e-05   2.900e-05
	Na                1.340e-04   1.340e-04
	O(0)              1.000e-04   1.000e-04
	S(-2)             1.000e-03   1.000e-03
	S(6)              1.000e-05   1.000e-05
	Si                2.730e-04   2.730e-04

----------------------------Description of solution----------------------------

                                       pH  =   6.200    
                                       pe  =   4.000    
                        Activity of water  =   1.000
                           Ionic strength  =   4.857e-04
                       Mass of water (kg)  =   1.000e+00
                    Total carbon (mol/kg)  =   4.088e-04
                       Total CO2 (mol/kg)  =   4.088e-04
                      Temperature (deg C)  =  25.000
                  Electrical balance (eq)  =   1.400e-05
 Percent error, 100*(Cat-|An|)/(Cat+|An|)  =   1.90
                               Iterations  =   7
                                  Total H  = 1.110155e+02
                                  Total O  = 5.550844e+01

---------------------------------Redox couples---------------------------------

	Redox couple             pe  Eh (volts)

	O(-2)/O(0)          14.2448      0.8427
	S(-2)/S(6)          -2.9166     -0.1725

----------------------------Distribution of species----------------------------

                                                   Log       Log         Log 
   Species                 Molality    Activity  Molality  Activity     Gamma

   H+                     6.465e-07   6.310e-07    -6.189    -6.200    -0.011
   OH-                    1.627e-08   1.587e-08    -7.789    -7.800    -0.011
   H2O                    5.551e+01   1.000e-00     1.744    -0.000     0.000
C(4)             4.088e-04
   CO2                    2.372e-04   2.372e-04    -3.625    -3.625     0.000
   HCO3-                  1.714e-04   1.672e-04    -3.766    -3.777    -0.011
   CaHCO3+                1.538e-07   1.500e-07    -6.813    -6.824    -0.011
   MgHCO3+                5.249e-08   5.119e-08    -7.280    -7.291    -0.011
   CO3-2                  1.373e-08   1.243e-08    -7.862    -7.906    -0.043
   NaHCO3                 1.228e-08   1.229e-08    -7.911    -7.911     0.000
   CaCO3                  1.465e-09   1.465e-09    -8.834    -8.834     0.000
   MgCO3                  3.102e-10   3.103e-10    -9.508    -9.508     0.000
   NaCO3-                 3.101e-11   3.024e-11   -10.509   -10.519    -0.011
Ca               7.801e-05
   Ca+2                   7.773e-05   7.036e-05    -4.109    -4.153    -0.043
   CaHCO3+                1.538e-07   1.500e-07    -6.813    -6.824    -0.011
   CaSO4                  1.247e-07   1.247e-07    -6.904    -6.904     0.000
   CaCO3                  1.465e-09   1.465e-09    -8.834    -8.834     0.000
   CaOH+                  1.898e-11   1.851e-11   -10.722   -10.733    -0.011
   CaHSO4+                4.726e-13   4.609e-13   -12.326   -12.336    -0.011
Cl               1.400e-05
   Cl-                    1.400e-05   1.365e-05    -4.854    -4.865    -0.011
H(0)             5.636e-24
   H2                     2.818e-24   2.818e-24   -23.550   -23.550     0.000
K                2.800e-05
   K+                     2.800e-05   2.730e-05    -4.553    -4.564    -0.011
   KSO4-                  1.747e-09   1.704e-09    -8.758    -8.769    -0.011
Mg               2.900e-05
   Mg+2                   2.889e-05   2.617e-05    -4.539    -4.582    -0.043
   MgSO4                  5.447e-08   5.448e-08    -7.264    -7.264     0.000
   MgHCO3+                5.249e-08   5.119e-08    -7.280    -7.291    -0.011
   MgCO3                  3.102e-10   3.103e-10    -9.508    -9.508     0.000
   MgOH+                  1.544e-10   1.506e-10    -9.811    -9.822    -0.011
Na               1.340e-04
   Na+                    1.340e-04   1.307e-04    -3.873    -3.884    -0.011
   NaHCO3                 1.228e-08   1.229e-08    -7.911    -7.911     0.000
   NaSO4-                 5.965e-09   5.817e-09    -8.224    -8.235    -0.011
   NaCO3-                 3.101e-11   3.024e-11   -10.509   -10.519    -0.011
O(0)             1.000e-04
   O2                     5.000e-05   5.001e-05    -4.301    -4.301     0.000
S(-2)            1.000e-03
   H2S                    8.427e-04   8.428e-04    -3.074    -3.074     0.000
   HS-                    1.567e-04   1.528e-04    -3.805    -3.816    -0.011
   S5-2                   6.766e-08   6.152e-08    -7.170    -7.211    -0.041
   S4-2                   3.953e-08   3.590e-08    -7.403    -7.445    -0.042
   S6-2                   3.498e-08   3.185e-08    -7.456    -7.497    -0.041
   S-2                    3.234e-11   2.924e-11   -10.490   -10.534    -0.044
   S3-2                   1.395e-11   1.265e-11   -10.856   -10.898    -0.042
   S2-2                   7.924e-13   7.179e-13   -12.101   -12.144    -0.043
S(6)             1.000e-05
   SO4-2                  9.813e-06   8.881e-06    -5.008    -5.052    -0.043
   CaSO4                  1.247e-07   1.247e-07    -6.904    -6.904     0.000
   MgSO4                  5.447e-08   5.448e-08    -7.264    -7.264     0.000
   NaSO4-                 5.965e-09   5.817e-09    -8.224    -8.235    -0.011
   KSO4-                  1.747e-09   1.704e-09    -8.758    -8.769    -0.011
   HSO4-                  5.587e-10   5.448e-10    -9.253    -9.264    -0.011
   CaHSO4+                4.726e-13   4.609e-13   -12.326   -12.336    -0.011
Si               2.730e-04
   H4SiO4                 2.730e-04   2.730e-04    -3.564    -3.564     0.000
   H3SiO4-                6.542e-08   6.379e-08    -7.184    -7.195    -0.011
   H2SiO4-2               7.605e-15   6.878e-15   -14.119   -14.163    -0.044

------------------------------Saturation indices-------------------------------

	Phase               SI log IAP  log KT

	Anhydrite        -4.84   -9.20   -4.36  CaSO4
	Aragonite        -3.72  -12.06   -8.34  CaCO3
	Artinite        -14.27   -4.67    9.60  MgCO3:Mg(OH)2:3H2O
	Brucite          -9.02    7.82   16.84  Mg(OH)2
	Calcite          -3.58  -12.06   -8.48  CaCO3
	Chalcedony       -0.01   -3.56   -3.55  SiO2
	Chrysotile      -15.88   16.33   32.20  Mg3Si2O5(OH)4
	Clinoenstatite   -7.09    4.25   11.34  MgSiO3
	CO2(g)           -2.16   -3.62   -1.47  CO2
	Cristobalite      0.02   -3.56   -3.59  SiO2
	Diopside        -10.96    8.94   19.89  CaMgSi2O6
	Dolomite         -7.46  -24.55  -17.09  CaMg(CO3)2
	Dolomite(d)      -8.01  -24.55  -16.54  CaMg(CO3)2
	Epsomite         -7.49   -9.63   -2.14  MgSO4:7H2O
	Forsterite      -16.23   12.07   28.31  Mg2SiO4
	Gypsum           -4.62   -9.20   -4.58  CaSO4:2H2O
	H2(g)           -20.40  -23.55   -3.15  H2
	H2O(g)           -1.51   -0.00    1.51  H2O
	H2S(g)           -2.08   -3.07   -1.00  H2S
	Halite          -10.33   -8.75    1.58  NaCl
	Huntite         -19.55  -49.52  -29.97  CaMg3(CO3)4
	Hydromagnesite  -33.37  -42.13   -8.76  Mg5(CO3)4(OH)2:4H2O
	Magadiite        -8.33  -22.63  -14.30  NaSi7O13(OH)3:3H2O
	Magnesite        -4.46  -12.49   -8.03  MgCO3
	Mirabilite      -11.71  -12.82   -1.11  Na2SO4:10H2O
	Nahcolite        -7.11   -7.66   -0.55  NaHCO3
	Natron          -14.36  -15.67   -1.31  Na2CO3:10H2O
	Nesquehonite     -6.87  -12.49   -5.62  MgCO3:3H2O
	O2(g)            -1.41   -4.30   -2.89  O2
	Portlandite     -14.55    8.25   22.80  Ca(OH)2
	Quartz            0.42   -3.56   -3.98  SiO2
	Sepiolite       -10.82    4.94   15.76  Mg2Si3O7.5OH:3H2O
	Sepiolite(d)    -13.72    4.94   18.66  Mg2Si3O7.5OH:3H2O
	Silicagel        -0.55   -3.56   -3.02  SiO2
	SiO2(a)          -0.85   -3.56   -2.71  SiO2
	Sulfur           12.49   -2.53  -15.03  S
	Talc            -12.20    9.20   21.40  Mg3Si4O10(OH)2
	Thenardite      -12.64  -12.82   -0.18  Na2SO4
	Thermonatrite   -15.80  -15.67    0.12  Na2CO3:H2O
	Tremolite       -29.50   27.07   56.57  Ca2Mg5Si8O22(OH)2
	Trona           -22.54  -23.33   -0.80  NaHCO3:Na2CO3:2H2O

Initial solution 2.	

-----------------------------Solution composition------------------------------

	Elements           Molality       Moles

	Alkalinity        8.951e-04   8.951e-04
	Ca                2.600e-04   2.600e-04
	Cl                3.000e-05   3.000e-05
	K                 4.001e-05   4.001e-05
	Mg                7.101e-05   7.101e-05
	Na                2.590e-04   2.590e-04
	O(0)              2.000e-04   2.000e-04
	S(-2)             2.000e-03   2.000e-03
	S(6)              2.500e-05   2.500e-05
	Si                4.101e-04   4.101e-04

----------------------------Description of solution----------------------------

                                       pH  =   6.800    
                                       pe  =   4.000    
                        Activity of water  =   1.000
                           Ionic strength  =   1.323e-03
                       Mass of water (kg)  =   1.000e+00
                    Total carbon (mol/kg)  =   4.930e-05
                       Total CO2 (mol/kg)  =   4.930e-05
                      Temperature (deg C)  =  25.000
                  Electrical balance (eq)  =  -1.400e-05
 Percent error, 100*(Cat-|An|)/(Cat+|An|)  =  -0.72
                               Iterations  =   8
                                  Total H  = 1.110172e+02
                                  Total O  = 5.550829e+01

---------------------------------Redox couples---------------------------------

	Redox couple             pe  Eh (volts)

	O(-2)/O(0)          13.7201      0.8116
	S(-2)/S(6)          -3.6380     -0.2152

----------------------------Distribution of species----------------------------

                                                   Log       Log         Log 
   Species                 Molality    Activity  Molality  Activity     Gamma

   H+                     1.647e-07   1.585e-07    -6.783    -6.800    -0.017
   OH-                    6.578e-08   6.316e-08    -7.182    -7.200    -0.018
   H2O                    5.551e+01   9.999e-01     1.744    -0.000     0.000
C(4)             4.930e-05
   HCO3-                  3.662e-05   3.518e-05    -4.436    -4.454    -0.017
   CO2                    1.253e-05   1.254e-05    -4.902    -4.902     0.000
   CaHCO3+                1.031e-07   9.900e-08    -6.987    -7.004    -0.018
   MgHCO3+                2.584e-08   2.481e-08    -7.588    -7.605    -0.018
   CO3-2                  1.222e-08   1.041e-08    -7.913    -7.983    -0.070
   NaHCO3                 4.919e-09   4.921e-09    -8.308    -8.308     0.000
   CaCO3                  3.847e-09   3.848e-09    -8.415    -8.415     0.000
   MgCO3                  5.986e-10   5.988e-10    -9.223    -9.223     0.000
   NaCO3-                 5.022e-11   4.822e-11   -10.299   -10.317    -0.018
Ca               2.600e-04
   Ca+2                   2.590e-04   2.206e-04    -3.587    -3.656    -0.070
   CaSO4                  8.914e-07   8.916e-07    -6.050    -6.050     0.000
   CaHCO3+                1.031e-07   9.900e-08    -6.987    -7.004    -0.018
   CaCO3                  3.847e-09   3.848e-09    -8.415    -8.415     0.000
   CaOH+                  2.406e-10   2.310e-10    -9.619    -9.636    -0.018
   CaHSO4+                8.622e-13   8.279e-13   -12.064   -12.082    -0.018
Cl               3.000e-05
   Cl-                    3.000e-05   2.880e-05    -4.523    -4.541    -0.018
H(0)             3.555e-25
   H2                     1.778e-25   1.778e-25   -24.750   -24.750     0.000
K                4.001e-05
   K+                     4.000e-05   3.840e-05    -4.398    -4.416    -0.018
   KSO4-                  5.691e-09   5.464e-09    -8.245    -8.262    -0.018
Mg               7.101e-05
   Mg+2                   7.070e-05   6.028e-05    -4.151    -4.220    -0.069
   MgSO4                  2.861e-07   2.862e-07    -6.543    -6.543     0.000
   MgHCO3+                2.584e-08   2.481e-08    -7.588    -7.605    -0.018
   MgOH+                  1.438e-09   1.381e-09    -8.842    -8.860    -0.018
   MgCO3                  5.986e-10   5.988e-10    -9.223    -9.223     0.000
Na               2.590e-04
   Na+                    2.590e-04   2.487e-04    -3.587    -3.604    -0.018
   NaSO4-                 2.630e-08   2.525e-08    -7.580    -7.598    -0.018
   NaHCO3                 4.919e-09   4.921e-09    -8.308    -8.308     0.000
   NaCO3-                 5.022e-11   4.822e-11   -10.299   -10.317    -0.018
O(0)             2.000e-04
   O2                     1.000e-04   1.000e-04    -4.000    -4.000     0.000
S(-2)            2.000e-03
   H2S                    1.133e-03   1.133e-03    -2.946    -2.946     0.000
   HS-                    8.517e-04   8.177e-04    -3.070    -3.087    -0.018
   S5-2                   1.522e-06   1.311e-06    -5.818    -5.882    -0.065
   S4-2                   8.908e-07   7.649e-07    -6.050    -6.116    -0.066
   S6-2                   7.854e-07   6.786e-07    -6.105    -6.168    -0.063
   S-2                    7.333e-10   6.232e-10    -9.135    -9.205    -0.071
   S3-2                   3.149e-10   2.695e-10    -9.502    -9.569    -0.068
   S2-2                   1.792e-11   1.530e-11   -10.747   -10.815    -0.069
S(6)             2.500e-05
   SO4-2                  2.379e-05   2.025e-05    -4.624    -4.693    -0.070
   CaSO4                  8.914e-07   8.916e-07    -6.050    -6.050     0.000
   MgSO4                  2.861e-07   2.862e-07    -6.543    -6.543     0.000
   NaSO4-                 2.630e-08   2.525e-08    -7.580    -7.598    -0.018
   KSO4-                  5.691e-09   5.464e-09    -8.245    -8.262    -0.018
   HSO4-                  3.251e-10   3.121e-10    -9.488    -9.506    -0.018
   CaHSO4+                8.622e-13   8.279e-13   -12.064   -12.082    -0.018
Si               4.101e-04
   H4SiO4                 4.097e-04   4.098e-04    -3.388    -3.387     0.000
   H3SiO4-                3.971e-07   3.812e-07    -6.401    -6.419    -0.018
   H2SiO4-2               1.926e-13   1.636e-13   -12.715   -12.786    -0.071

------------------------------Saturation indices-------------------------------

	Phase               SI log IAP  log KT

	Anhydrite        -3.99   -8.35   -4.36  CaSO4
	Aragonite        -3.30  -11.64   -8.34  CaCO3
	Artinite        -12.42   -2.82    9.60  MgCO3:Mg(OH)2:3H2O
	Brucite          -7.46    9.38   16.84  Mg(OH)2
	Calcite          -3.16  -11.64   -8.48  CaCO3
	Chalcedony        0.16   -3.39   -3.55  SiO2
	Chrysotile      -10.84   21.37   32.20  Mg3Si2O5(OH)4
	Clinoenstatite   -5.35    5.99   11.34  MgSiO3
	CO2(g)           -3.43   -4.90   -1.47  CO2
	Cristobalite      0.20   -3.39   -3.59  SiO2
	Diopside         -7.34   12.55   19.89  CaMgSi2O6
	Dolomite         -6.75  -23.84  -17.09  CaMg(CO3)2
	Dolomite(d)      -7.30  -23.84  -16.54  CaMg(CO3)2
	Epsomite         -6.77   -8.91   -2.14  MgSO4:7H2O
	Forsterite      -12.93   15.37   28.31  Mg2SiO4
	Gypsum           -3.77   -8.35   -4.58  CaSO4:2H2O
	H2(g)           -21.60  -24.75   -3.15  H2
	H2O(g)           -1.51   -0.00    1.51  H2O
	H2S(g)           -1.95   -2.95   -1.00  H2S
	Halite           -9.73   -8.14    1.58  NaCl
	Huntite         -18.28  -48.25  -29.97  CaMg3(CO3)4
	Hydromagnesite  -30.67  -39.43   -8.76  Mg5(CO3)4(OH)2:4H2O
	Magadiite        -6.22  -20.52  -14.30  NaSi7O13(OH)3:3H2O
	Magnesite        -4.17  -12.20   -8.03  MgCO3
	Mirabilite      -10.79  -11.90   -1.11  Na2SO4:10H2O
	Nahcolite        -7.51   -8.06   -0.55  NaHCO3
	Natron          -13.88  -15.19   -1.31  Na2CO3:10H2O
	Nesquehonite     -6.58  -12.20   -5.62  MgCO3:3H2O
	O2(g)            -1.11   -4.00   -2.89  O2
	Portlandite     -12.86    9.94   22.80  Ca(OH)2
	Quartz            0.59   -3.39   -3.98  SiO2
	Sepiolite        -7.16    8.60   15.76  Mg2Si3O7.5OH:3H2O
	Sepiolite(d)    -10.06    8.60   18.66  Mg2Si3O7.5OH:3H2O
	Silicagel        -0.37   -3.39   -3.02  SiO2
	SiO2(a)          -0.68   -3.39   -2.71  SiO2
	Sulfur           13.82   -1.21  -15.03  S
	Talc             -6.81   14.59   21.40  Mg3Si4O10(OH)2
	Thenardite      -11.72  -11.90   -0.18  Na2SO4
	Thermonatrite   -15.32  -15.19    0.12  Na2CO3:H2O
	Tremolite       -16.89   39.69   56.57  Ca2Mg5Si8O22(OH)2
	Trona           -22.45  -23.25   -0.80  NaHCO3:Na2CO3:2H2O

------------------
End of simulation.
------------------

------------------------------------
Reading input data for simulation 3.
------------------------------------

	SOLUTION 3
		 temp	1
		 pH	2
		 O(0)   3
		 C(4)   4
		 3H	5
		 S(-2)  6
		 Ca	7
		 pe	13.559322 
		 Mg	9
		 Na	10
		 K	11
		 Cl	12
		 S(6)	13
		 F	14
		 Si	15
		 Br	16
		 B	17
		 Ba	18
		 Li     19
		 Sr	20
		 Fe	21
		 Mn	22
		 N(5)	23
		 N(-3)	24
		 P	25
		 Fulvate 13
		 Humate  13
		 Density 27
		 13C(4)  28
		 14C(4)  29
		 34S(6)  30
		 34S(-2) 31
		 2H      32
		 18O     33
		 C(-4)   34
		 87Sr    35
		 Al	 36
		 N(0)    37
		 15N(0)  38
		 15N(5) 39
		 15N(3)  40
		 15N(-3) 41
		 13C(-4) 42
		 14C(-4) 43
	END
-------------------------------------------
Beginning of initial solution calculations.
-------------------------------------------

Initial solution 3.	

-----------------------------Solution composition------------------------------

	Elements           Molality       Moles

	Al                3.600e-02   3.600e-02
	B                 1.700e-02   1.700e-02
	Ba                1.800e-02   1.800e-02
	Br                1.600e-02   1.600e-02
	C(-4)             3.400e-02   3.400e-02
	C(4)              4.000e-03   4.000e-03
	Ca                7.000e-03   7.000e-03
	Cl                1.200e-02   1.200e-02
	F                 1.400e-02   1.400e-02
	Fe                2.100e-02   2.100e-02
	Fulvate           1.300e-02   1.300e-02
	Humate            1.300e-02   1.300e-02
	K                 1.100e-02   1.100e-02
	Li                1.900e-02   1.900e-02
	Mg                9.000e-03   9.000e-03
	Mn                2.200e-02   2.200e-02
	N(-3)             2.400e-02   2.400e-02
	N(0)              3.700e-02   3.700e-02
	N(5)              2.300e-02   2.300e-02
	Na                1.000e-02   1.000e-02
	O(0)              3.000e-03   3.000e-03
	P                 2.500e-02   2.500e-02
	S(-2)             6.000e-03   6.000e-03
	S(6)              1.300e-02   1.300e-02
	Si                1.500e-02   1.500e-02
	Sr                2.000e-02   2.000e-02

----------------------------Description of solution----------------------------

                                       pH  =   2.000    
                                       pe  =  13.559    
                        Activity of water  =   0.993
                           Ionic strength  =   3.546e-01
                       Mass of water (kg)  =   1.000e+00
                 Total alkalinity (eq/kg)  =  -6.306e-02
                       Total CO2 (mol/kg)  =   4.000e-03
                      Temperature (deg C)  =   1.000
                  Electrical balance (eq)  =   2.401e-01
 Percent error, 100*(Cat-|An|)/(Cat+|An|)  =  57.59
                               Iterations  =  12
                                  Total H  = 1.114385e+02
                                  Total O  = 5.584922e+01

---------------------------------Redox couples---------------------------------

	Redox couple             pe  Eh (volts)

	C(-4)/C(4)           1.3607      0.0740
	N(-3)/N(0)           3.4777      0.1892
	N(-3)/N(5)          13.8844      0.7552
	N(0)/N(5)           20.1284      1.0949
	O(-2)/O(0)          20.9866      1.1416
	S(-2)/S(6)           3.0030      0.1633

----------------------------Distribution of species----------------------------

                                                   Log       Log         Log 
   Species                 Molality    Activity  Molality  Activity     Gamma

   H+                     1.279e-02   1.000e-02    -1.893    -2.000    -0.107
   OH-                    1.695e-13   1.253e-13   -12.771   -12.902    -0.131
   H2O                    5.551e+01   9.934e-01     1.744    -0.003     0.000
Al               3.600e-02
   Al+3                   1.899e-02   1.252e-03    -1.721    -2.902    -1.181
   AlF+2                  1.246e-02   3.721e-03    -1.905    -2.429    -0.525
   AlSO4+                 3.675e-03   2.717e-03    -2.435    -2.566    -0.131
   AlF2+                  7.652e-04   5.657e-04    -3.116    -3.247    -0.131
   Al(SO4)2-              9.906e-05   7.323e-05    -4.004    -4.135    -0.131
   AlHSO4+2               7.098e-06   2.120e-06    -5.149    -5.674    -0.525
   AlF3                   2.221e-06   2.410e-06    -5.653    -5.618     0.035
   AlOH+2                 7.977e-07   2.382e-07    -6.098    -6.623    -0.525
   AlF4-                  4.484e-10   3.315e-10    -9.348    -9.480    -0.131
   Al(OH)2+               2.214e-11   1.637e-11   -10.655   -10.786    -0.131
   Al(OH)3                2.739e-17   2.972e-17   -16.562   -16.527     0.035
   Al(OH)4-               6.524e-21   4.823e-21   -20.185   -20.317    -0.131
B                1.700e-02
   H3BO3                  1.700e-02   1.845e-02    -1.770    -1.734     0.035
   BF(OH)3-               2.627e-09   1.942e-09    -8.581    -8.712    -0.131
   BF2(OH)2-              1.019e-09   7.533e-10    -8.992    -9.123    -0.131
   H2BO3-                 8.918e-10   6.592e-10    -9.050    -9.181    -0.131
   BF3OH-                 6.301e-12   4.658e-12   -11.201   -11.332    -0.131
   BF4-                   9.294e-14   6.870e-14   -13.032   -13.163    -0.131
Ba               1.800e-02
   Ba+2                   1.589e-02   4.746e-03    -1.799    -2.324    -0.525
   BaSO4                  2.109e-03   2.289e-03    -2.676    -2.640     0.035
   BaHCO3+                3.391e-09   2.507e-09    -8.470    -8.601    -0.131
   BaOH+                  2.161e-14   1.597e-14   -13.665   -13.797    -0.131
   BaCO3                  3.989e-16   4.329e-16   -15.399   -15.364     0.035
Br               1.600e-02
   Br-                    1.600e-02   1.183e-02    -1.796    -1.927    -0.131
C(-4)            3.400e-02
   CH4                    3.400e-02   3.689e-02    -1.469    -1.433     0.035
C(4)             4.000e-03
   CO2                    4.000e-03   4.340e-03    -2.398    -2.363     0.035
   HCO3-                  1.631e-07   1.173e-07    -6.787    -6.931    -0.143
   MnHCO3+                8.916e-08   6.591e-08    -7.050    -7.181    -0.131
   SrHCO3+                6.137e-09   4.413e-09    -8.212    -8.355    -0.143
   MgHCO3+                4.391e-09   3.246e-09    -8.357    -8.489    -0.131
   BaHCO3+                3.391e-09   2.507e-09    -8.470    -8.601    -0.131
   CaHCO3+                1.951e-09   1.442e-09    -8.710    -8.841    -0.131
   NaHCO3                 4.401e-10   4.776e-10    -9.356    -9.321     0.035
   FeHCO3+                3.513e-12   2.597e-12   -11.454   -11.586    -0.131
   MnCO3                  1.319e-13   1.432e-13   -12.880   -12.844     0.035
   CO3-2                  1.069e-15   2.859e-16   -14.971   -15.544    -0.573
   CaCO3                  6.381e-16   6.924e-16   -15.195   -15.160     0.035
   SrCO3                  5.024e-16   5.024e-16   -15.299   -15.299     0.000
   MgCO3                  4.282e-16   4.646e-16   -15.368   -15.333     0.035
   BaCO3                  3.989e-16   4.329e-16   -15.399   -15.364     0.035
   NaCO3-                 1.398e-17   1.033e-17   -16.855   -16.986    -0.131
   FeCO3                  1.399e-18   1.518e-18   -17.854   -17.819     0.035
Ca               7.000e-03
   Ca+2                   6.157e-03   1.788e-03    -2.211    -2.748    -0.537
   CaH2PO4+               5.776e-04   4.270e-04    -3.238    -3.370    -0.131
   CaSO4                  2.480e-04   2.691e-04    -3.606    -3.570     0.035
   CaHSO4+                1.707e-05   1.262e-05    -4.768    -4.899    -0.131
   CaHPO4                 4.590e-08   4.981e-08    -7.338    -7.303     0.035
   CaF+                   3.984e-09   2.945e-09    -8.400    -8.531    -0.131
   CaHCO3+                1.951e-09   1.442e-09    -8.710    -8.841    -0.131
   CaOH+                  3.988e-14   2.948e-14   -13.399   -13.530    -0.131
   CaPO4-                 9.746e-15   7.204e-15   -14.011   -14.142    -0.131
   CaCO3                  6.381e-16   6.924e-16   -15.195   -15.160     0.035
Cl               1.200e-02
   Cl-                    1.172e-02   7.939e-03    -1.931    -2.100    -0.169
   MnCl+                  2.758e-04   2.039e-04    -3.559    -3.691    -0.131
   MnCl2                  6.512e-07   7.066e-07    -6.186    -6.151     0.035
   FeCl+2                 6.435e-08   1.922e-08    -7.191    -7.716    -0.525
   FeCl+                  3.282e-09   2.426e-09    -8.484    -8.615    -0.131
   FeCl2+                 2.109e-09   1.559e-09    -8.676    -8.807    -0.131
   MnCl3-                 2.090e-09   1.545e-09    -8.680    -8.811    -0.131
   FeCl3                  1.140e-12   1.237e-12   -11.943   -11.907     0.035
F                1.400e-02
   AlF+2                  1.246e-02   3.721e-03    -1.905    -2.429    -0.525
   AlF2+                  7.652e-04   5.657e-04    -3.116    -3.247    -0.131
   HF                     3.192e-06   3.463e-06    -5.496    -5.461     0.035
   AlF3                   2.221e-06   2.410e-06    -5.653    -5.618     0.035
   F-                     4.701e-07   3.475e-07    -6.328    -6.459    -0.131
   FeF+2                  2.269e-07   6.777e-08    -6.644    -7.169    -0.525
   MgF+                   4.767e-08   3.524e-08    -7.322    -7.453    -0.131
   MnF+                   2.051e-08   1.516e-08    -7.688    -7.819    -0.131
   CaF+                   3.984e-09   2.945e-09    -8.400    -8.531    -0.131
   BF(OH)3-               2.627e-09   1.942e-09    -8.581    -8.712    -0.131
   NaF                    1.334e-09   1.448e-09    -8.875    -8.839     0.035
   BF2(OH)2-              1.019e-09   7.533e-10    -8.992    -9.123    -0.131
   FeF2+                  9.300e-10   6.875e-10    -9.032    -9.163    -0.131
   AlF4-                  4.484e-10   3.315e-10    -9.348    -9.480    -0.131
   H2F2                   6.524e-11   7.079e-11   -10.185   -10.150     0.035
   BF3OH-                 6.301e-12   4.658e-12   -11.201   -11.332    -0.131
   HF2-                   4.800e-12   3.548e-12   -11.319   -11.450    -0.131
   FeF+                   1.041e-12   7.693e-13   -11.983   -12.114    -0.131
   FeF3                   3.194e-13   3.465e-13   -12.496   -12.460     0.035
   BF4-                   9.294e-14   6.870e-14   -13.032   -13.163    -0.131
   SiF6-2                 1.649e-17   4.925e-18   -16.783   -17.308    -0.525
Fe(2)            3.083e-06
   FeH2PO4+               2.314e-06   1.711e-06    -5.636    -5.767    -0.131
   Fe+2                   7.413e-07   2.214e-07    -6.130    -6.655    -0.525
   FeSO4                  2.166e-08   2.351e-08    -7.664    -7.629     0.035
   FeCl+                  3.282e-09   2.426e-09    -8.484    -8.615    -0.131
   FeHSO4+                2.113e-09   1.562e-09    -8.675    -8.806    -0.131
   FeHPO4                 6.718e-11   7.289e-11   -10.173   -10.137     0.035
   FeHCO3+                3.513e-12   2.597e-12   -11.454   -11.586    -0.131
   FeF+                   1.041e-12   7.693e-13   -11.983   -12.114    -0.131
   Fe(HS)2                1.672e-13   1.814e-13   -12.777   -12.741     0.035
   FeOH+                  1.338e-15   9.891e-16   -14.874   -15.005    -0.131
   FeCO3                  1.399e-18   1.518e-18   -17.854   -17.819     0.035
   Fe(HS)3-               8.104e-19   5.991e-19   -18.091   -18.223    -0.131
   Fe(OH)2                7.960e-26   8.638e-26   -25.099   -25.064     0.035
   Fe(OH)3-               3.337e-34   2.467e-34   -33.477   -33.608    -0.131
Fe(3)            2.100e-02
   FeFulvate+             9.222e-03   6.817e-03    -2.035    -2.166    -0.131
   FeHumate+              9.222e-03   6.817e-03    -2.035    -2.166    -0.131
   FeH2PO4+2              2.548e-03   7.610e-04    -2.594    -3.119    -0.525
   Fe+3                   2.781e-06   1.834e-07    -5.556    -6.737    -1.181
   FeSO4+                 1.469e-06   1.086e-06    -5.833    -5.964    -0.131
   FeF+2                  2.269e-07   6.777e-08    -6.644    -7.169    -0.525
   FeHSO4+2               1.088e-07   3.250e-08    -6.963    -7.488    -0.525
   FeOH+2                 8.471e-08   2.530e-08    -7.072    -7.597    -0.525
   FeCl+2                 6.435e-08   1.922e-08    -7.191    -7.716    -0.525
   Fe(SO4)2-              2.792e-08   2.064e-08    -7.554    -7.685    -0.131
   FeHPO4+                2.358e-09   1.743e-09    -8.628    -8.759    -0.131
   FeCl2+                 2.109e-09   1.559e-09    -8.676    -8.807    -0.131
   FeF2+                  9.300e-10   6.875e-10    -9.032    -9.163    -0.131
   Fe(OH)2+               4.183e-10   3.092e-10    -9.379    -9.510    -0.131
   Fe2(OH)2+4             6.367e-12   5.065e-14   -11.196   -13.295    -2.099
   FeCl3                  1.140e-12   1.237e-12   -11.943   -11.907     0.035
   FeF3                   3.194e-13   3.465e-13   -12.496   -12.460     0.035
   Fe(OH)3                1.169e-15   1.268e-15   -14.932   -14.897     0.035
   Fe3(OH)4+5             6.935e-17   3.637e-20   -16.159   -19.439    -3.280
   Fe(OH)4-               5.445e-23   4.025e-23   -22.264   -22.395    -0.131
Fulvate          1.300e-02
   FeFulvate+             9.222e-03   6.817e-03    -2.035    -2.166    -0.131
   HFulvate-              3.728e-03   2.756e-03    -2.428    -2.560    -0.131
   Fulvate-2              4.956e-05   1.480e-05    -4.305    -4.830    -0.525
H(0)             1.288e-34
   H2                     6.438e-35   6.986e-35   -34.191   -34.156     0.035
Humate           1.300e-02
   FeHumate+              9.222e-03   6.817e-03    -2.035    -2.166    -0.131
   HHumate-               3.728e-03   2.756e-03    -2.428    -2.560    -0.131
   Humate-2               4.956e-05   1.480e-05    -4.305    -4.830    -0.525
K                1.100e-02
   K+                     1.096e-02   7.420e-03    -1.960    -2.130    -0.169
   KSO4-                  4.304e-05   3.182e-05    -4.366    -4.497    -0.131
   KHPO4-                 1.619e-09   1.197e-09    -8.791    -8.922    -0.131
Li               1.900e-02
   Li+                    1.892e-02   1.399e-02    -1.723    -1.854    -0.131
   LiSO4-                 7.948e-05   5.875e-05    -4.100    -4.231    -0.131
Mg               9.000e-03
   Mg+2                   7.726e-03   2.462e-03    -2.112    -2.609    -0.497
   MgH2PO4+               1.013e-03   7.486e-04    -2.995    -3.126    -0.131
   MgSO4                  2.614e-04   2.836e-04    -3.583    -3.547     0.035
   MgHPO4                 8.545e-08   9.271e-08    -7.068    -7.033     0.035
   MgF+                   4.767e-08   3.524e-08    -7.322    -7.453    -0.131
   MgHCO3+                4.391e-09   3.246e-09    -8.357    -8.489    -0.131
   MgOH+                  1.138e-13   8.411e-14   -12.944   -13.075    -0.131
   MgPO4-                 1.810e-14   1.338e-14   -13.742   -13.874    -0.131
   MgCO3                  4.282e-16   4.646e-16   -15.368   -15.333     0.035
Mn(2)            2.200e-02
   Mn+2                   2.111e-02   6.305e-03    -1.675    -2.200    -0.525
   MnSO4                  6.043e-04   6.558e-04    -3.219    -3.183     0.035
   MnCl+                  2.758e-04   2.039e-04    -3.559    -3.691    -0.131
   Mn(NO3)2               7.081e-06   7.684e-06    -5.150    -5.114     0.035
   MnCl2                  6.512e-07   7.066e-07    -6.186    -6.151     0.035
   MnHCO3+                8.916e-08   6.591e-08    -7.050    -7.181    -0.131
   MnF+                   2.051e-08   1.516e-08    -7.688    -7.819    -0.131
   MnCl3-                 2.090e-09   1.545e-09    -8.680    -8.811    -0.131
   MnOH+                  2.594e-12   1.918e-12   -11.586   -11.717    -0.131
   MnCO3                  1.319e-13   1.432e-13   -12.880   -12.844     0.035
   Mn(OH)3-               1.325e-31   9.795e-32   -30.878   -31.009    -0.131
Mn(3)            2.368e-15
   Mn+3                   2.368e-15   1.561e-16   -14.626   -15.807    -1.181
Mn(6)            0.000e+00
   MnO4-2                 0.000e+00   0.000e+00   -59.516   -60.041    -0.525
Mn(7)            0.000e+00
   MnO4-                  0.000e+00   0.000e+00   -57.441   -57.573    -0.131
N(-3)            2.400e-02
   NH4+                   2.371e-02   1.752e-02    -1.625    -1.756    -0.131
   NH4SO4-                2.939e-04   2.172e-04    -3.532    -3.663    -0.131
   NH3                    1.448e-10   1.571e-10    -9.839    -9.804     0.035
N(0)             3.700e-02
   N2                     1.850e-02   2.007e-02    -1.733    -1.697     0.035
N(5)             2.300e-02
   NO3-                   2.299e-02   1.699e-02    -1.639    -1.770    -0.131
   Mn(NO3)2               7.081e-06   7.684e-06    -5.150    -5.114     0.035
Na               1.000e-02
   Na+                    9.960e-03   7.240e-03    -2.002    -2.140    -0.138
   NaSO4-                 4.003e-05   2.959e-05    -4.398    -4.529    -0.131
   NaHPO4-                1.580e-09   1.168e-09    -8.801    -8.933    -0.131
   NaF                    1.334e-09   1.448e-09    -8.875    -8.839     0.035
   NaHCO3                 4.401e-10   4.776e-10    -9.356    -9.321     0.035
   NaCO3-                 1.398e-17   1.033e-17   -16.855   -16.986    -0.131
O(0)             3.000e-03
   O2                     1.500e-03   1.628e-03    -2.824    -2.788     0.035
P                2.500e-02
   H2PO4-                 2.086e-02   1.542e-02    -1.681    -1.812    -0.131
   FeH2PO4+2              2.548e-03   7.610e-04    -2.594    -3.119    -0.525
   MgH2PO4+               1.013e-03   7.486e-04    -2.995    -3.126    -0.131
   CaH2PO4+               5.776e-04   4.270e-04    -3.238    -3.370    -0.131
   FeH2PO4+               2.314e-06   1.711e-06    -5.636    -5.767    -0.131
   HPO4-2                 2.769e-07   8.271e-08    -6.558    -7.082    -0.525
   MgHPO4                 8.545e-08   9.271e-08    -7.068    -7.033     0.035
   CaHPO4                 4.590e-08   4.981e-08    -7.338    -7.303     0.035
   FeHPO4+                2.358e-09   1.743e-09    -8.628    -8.759    -0.131
   KHPO4-                 1.619e-09   1.197e-09    -8.791    -8.922    -0.131
   NaHPO4-                1.580e-09   1.168e-09    -8.801    -8.933    -0.131
   FeHPO4                 6.718e-11   7.289e-11   -10.173   -10.137     0.035
   MgPO4-                 1.810e-14   1.338e-14   -13.742   -13.874    -0.131
   CaPO4-                 9.746e-15   7.204e-15   -14.011   -14.142    -0.131
   PO4-3                  3.357e-17   2.213e-18   -16.474   -17.655    -1.181
S(-2)            6.000e-03
   H2S                    6.000e-03   6.510e-03    -2.222    -2.186     0.035
   HS-                    4.102e-08   3.032e-08    -7.387    -7.518    -0.131
   Fe(HS)2                1.672e-13   1.814e-13   -12.777   -12.741     0.035
   S6-2                   8.254e-16   3.988e-16   -15.083   -15.399    -0.316
   S5-2                   4.392e-16   1.950e-16   -15.357   -15.710    -0.353
   S4-2                   2.689e-16   1.072e-16   -15.570   -15.970    -0.399
   Fe(HS)3-               8.104e-19   5.991e-19   -18.091   -18.223    -0.131
   S-2                    2.052e-19   6.129e-20   -18.688   -19.213    -0.525
   S3-2                   9.823e-20   3.408e-20   -19.008   -19.468    -0.460
   S2-2                   5.510e-21   1.668e-21   -20.259   -20.778    -0.519
S(6)             1.300e-02
   SO4-2                  3.917e-03   9.623e-04    -2.407    -3.017    -0.610
   AlSO4+                 3.675e-03   2.717e-03    -2.435    -2.566    -0.131
   BaSO4                  2.109e-03   2.289e-03    -2.676    -2.640     0.035
   HSO4-                  7.940e-04   5.870e-04    -3.100    -3.231    -0.131
   SrSO4                  7.112e-04   7.717e-04    -3.148    -3.113     0.035
   MnSO4                  6.043e-04   6.558e-04    -3.219    -3.183     0.035
   NH4SO4-                2.939e-04   2.172e-04    -3.532    -3.663    -0.131
   MgSO4                  2.614e-04   2.836e-04    -3.583    -3.547     0.035
   CaSO4                  2.480e-04   2.691e-04    -3.606    -3.570     0.035
   Al(SO4)2-              9.906e-05   7.323e-05    -4.004    -4.135    -0.131
   LiSO4-                 7.948e-05   5.875e-05    -4.100    -4.231    -0.131
   KSO4-                  4.304e-05   3.182e-05    -4.366    -4.497    -0.131
   NaSO4-                 4.003e-05   2.959e-05    -4.398    -4.529    -0.131
   CaHSO4+                1.707e-05   1.262e-05    -4.768    -4.899    -0.131
   AlHSO4+2               7.098e-06   2.120e-06    -5.149    -5.674    -0.525
   FeSO4+                 1.469e-06   1.086e-06    -5.833    -5.964    -0.131
   FeHSO4+2               1.088e-07   3.250e-08    -6.963    -7.488    -0.525
   Fe(SO4)2-              2.792e-08   2.064e-08    -7.554    -7.685    -0.131
   FeSO4                  2.166e-08   2.351e-08    -7.664    -7.629     0.035
   FeHSO4+                2.113e-09   1.562e-09    -8.675    -8.806    -0.131
Si               1.500e-02
   H4SiO4                 1.500e-02   1.628e-02    -1.824    -1.788     0.035
   H3SiO4-                1.214e-10   8.976e-11    -9.916   -10.047    -0.131
   SiF6-2                 1.649e-17   4.925e-18   -16.783   -17.308    -0.525
   H2SiO4-2               3.360e-22   1.004e-22   -21.474   -21.998    -0.525
Sr               2.000e-02
   Sr+2                   1.929e-02   5.593e-03    -1.715    -2.252    -0.538
   SrSO4                  7.112e-04   7.717e-04    -3.148    -3.113     0.035
   SrHCO3+                6.137e-09   4.413e-09    -8.212    -8.355    -0.143
   SrOH+                  4.014e-14   2.849e-14   -13.396   -13.545    -0.149
   SrCO3                  5.024e-16   5.024e-16   -15.299   -15.299     0.000

------------------------------Saturation indices-------------------------------

	Phase               SI log IAP  log KT

	Adularia         -5.24  -27.79  -22.55  KAlSi3O8
	Al(OH)3(a)       -9.41    3.09   12.50  Al(OH)3
	Albite           -8.14  -27.80  -19.66  NaAlSi3O8
	AlumK            -5.47  -11.10   -5.63  KAl(SO4)2:12H2O
	Alunite          -6.71   -4.89    1.82  KAl3(SO4)2(OH)6
	Analcime        -12.15  -26.02  -13.87  NaAlSi2O6:H2O
	Anhydrite        -1.40   -5.76   -4.36  CaSO4
	Annite          -35.51 -125.16  -89.65  KFe3AlSi3O10(OH)2
	Anorthite       -26.48  -46.93  -20.46  CaAl2Si2O8
	Aragonite       -10.07  -18.29   -8.22  CaCO3
	Artinite        -28.22  -16.78   11.44  MgCO3:Mg(OH)2:3H2O
	BaF2             -9.42  -15.24   -5.82  BaF2
	Barite            5.11   -5.34  -10.45  BaSO4
	Basaluminite    -17.35    5.35   22.70  Al4(OH)10SO4
	Beidellite       -9.34  -58.48  -49.14  (NaKMg0.5)0.11Al2.33Si3.67O10(OH)2
	Birnessite      -10.69   32.91   43.60  MnO2
	Bixbyite        -19.99  -19.62    0.37  Mn2O3
	Boehmite         -7.30    3.09   10.39  AlOOH
	Brucite         -17.19    1.39   18.58  Mg(OH)2
	Ca-Montmorillonite  -9.55  -58.32  -48.77  Ca0.165Al2.33Si3.67O10(OH)2
	Calcite          -9.91  -18.29   -8.38  CaCO3
	Celestite         1.42   -5.27   -6.69  SrSO4
	CH4(g)            1.21   -1.43   -2.64  CH4
	Chalcedony        2.07   -1.78   -3.85  SiO2
	Chlorite14A     -70.33    7.77   78.10  Mg5Al2Si3O10(OH)8
	Chlorite7A      -73.95    7.77   81.71  Mg5Al2Si3O10(OH)8
	Chrysotile      -34.83    0.59   35.43  Mg3Si2O5(OH)4
	Clinoenstatite  -13.02   -0.39   12.63  MgSiO3
	CO2(g)           -1.24   -2.36   -1.13  CO2
	Cristobalite      2.16   -1.78   -3.94  SiO2
	Diaspore         -5.37    3.09    8.46  AlOOH
	Diopside        -22.90   -0.93   21.97  CaMgSi2O6
	Dolomite        -19.96  -36.44  -16.48  CaMg(CO3)2
	Dolomite(d)     -20.62  -36.44  -15.83  CaMg(CO3)2
	Epsomite         -3.32   -5.65   -2.32  MgSO4:7H2O
	FCO3Apatite     -29.23 -146.16 -116.93  Ca9.316Na0.36Mg0.144(PO4)4.8(CO3)1.2F2.48
	Fe(OH)2.7Cl.3     1.07   -1.97   -3.04  Fe(OH)2.7Cl0.3
	Fe(OH)3(a)       -5.64   -0.75    4.89  Fe(OH)3
	Fe3(OH)8        -24.37   -4.15   20.22  Fe3(OH)8
	FeS(ppt)         -8.26  -12.17   -3.92  FeS
	Fluorapatite    -19.13  -35.44  -16.31  Ca5(PO4)3F
	Fluorite         -4.72  -15.67  -10.94  CaF2
	Forsterite      -30.43    0.99   31.42  Mg2SiO4
	Gibbsite         -6.48    3.09    9.57  Al(OH)3
	Goethite         -0.67   -0.74   -0.07  FeOOH
	Greenalite      -32.35  -11.54   20.81  Fe3Si2O5(OH)4
	Greigite          2.83  -42.20  -45.03  Fe3S4
	Gypsum           -1.16   -5.77   -4.61  CaSO4:2H2O
	H2(g)           -31.12  -34.16   -3.04  H2
	H2O(g)           -2.19   -0.00    2.19  H2O
	H2S(g)           -1.48   -2.19   -0.70  H2S
	Halite           -5.76   -4.24    1.52  NaCl
	Halloysite      -12.44    2.62   15.06  Al2Si2O5(OH)4
	Hausmannite     -30.98   36.51   67.49  Mn3O4
	Hematite          0.55   -1.48   -2.03  Fe2O3
	Huntite         -44.43  -72.75  -28.32  CaMg3(CO3)4
	Hydromagnesite  -65.83  -71.24   -5.41  Mg5(CO3)4(OH)2:4H2O
	Hydroxyapatite  -25.89  -26.99   -1.10  Ca5(PO4)3OH
	Illite          -13.51  -57.29  -43.78  K0.6Mg0.25Al2.3Si3.5O10(OH)2
	Jarosite(ss)     -6.53  -16.36   -9.83  (K0.77Na0.03H0.2)Fe3(SO4)2(OH)6
	Jarosite-K       -9.19  -16.39   -7.20  KFe3(SO4)2(OH)6
	Jarosite-Na     -13.44  -16.40   -2.96  NaFe3(SO4)2(OH)6
	JarositeH       -14.41  -16.26   -1.85  (H3O)Fe3(SO4)2(OH)6
	Jurbanite        -0.69   -3.92   -3.23  AlOHSO4
	Kaolinite        -7.08    2.62    9.70  Al2Si2O5(OH)4
	Kmica           -12.71    3.80   16.51  KAl3Si3O10(OH)2
	Laumontite      -17.01  -50.51  -33.50  CaAl2Si4O12:4H2O
	Leonhardite     -25.48 -101.02  -75.54  Ca2Al4Si8O24:7H2O
	Mackinawite      -7.53  -12.17   -4.65  FeS
	Magadiite         1.67  -12.63  -14.30  NaSi7O13(OH)3:3H2O
	Maghemite        -7.87   -1.48    6.39  Fe2O3
	Magnesite       -10.52  -18.15   -7.63  MgCO3
	Magnetite       -11.11   -4.14    6.97  Fe3O4
	Manganite        -7.99   17.35   25.34  MnOOH
	Melanterite      -7.14   -9.69   -2.55  FeSO4:7H2O
	Mirabilite       -4.99   -7.33   -2.33  Na2SO4:10H2O
	Mn2(SO4)3       -37.46  -40.66   -3.20  Mn2(SO4)3
	Mn3(PO4)2       -17.95  -41.91  -23.96  Mn3(PO4)2
	MnCl2:4H2O       -8.01   -6.41    1.59  MnCl2:4H2O
	MnHPO4            3.66   -9.28  -12.95  MnHPO4
	MnS(Green)      -11.89   -7.72    4.17  MnS
	MnSO4            -8.88   -5.22    3.66  MnSO4
	Montmorillonite-Aberdeen  -9.58  -39.27  -29.69  (HNaK)0.14Mg0.45Fe0.33Al1.47Si3.82O10(OH)2
	Montmorillonite-BelleFourche  -6.92  -41.83  -34.91  (HNaK)0.09Mg0.29Fe0.24Al1.57Si3.93O10(OH)2
	Montmorillonite-Ca  -9.55  -58.32  -48.77  Ca0.165Al2.33Si3.67O10(OH)2
	N2(g)             1.48   -1.70   -3.17  N2
	Nahcolite        -8.28   -9.07   -0.79  NaHCO3
	Natron          -17.53  -19.85   -2.32  Na2CO3:10H2O
	Nesquehonite    -12.91  -18.16   -5.25  MgCO3:3H2O
	NH3(g)          -12.10   -9.80    2.29  NH3
	Nsutite          -9.65   32.91   42.56  MnO2
	O2(g)            -0.12   -2.79   -2.67  O2
	Phillipsite      -7.92  -27.80  -19.87  Na0.5K0.5AlSi3O8:H2O
	Phlogopite      -44.24    1.78   46.01  KMg3AlSi3O10(OH)2
	Portlandite     -23.54    1.25   24.79  Ca(OH)2
	Prehnite        -35.11  -47.47  -12.36  Ca2Al2Si3O10(OH)2
	Pyrite           28.63    9.43  -19.20  FeS2
	Pyrochroite     -13.41    1.79   15.20  Mn(OH)2
	Pyrolusite      -12.65   32.91   45.56  MnO2
	Pyrophyllite     -3.44  -51.75  -48.31  Al2Si4O10(OH)2
	Quartz            2.58   -1.78   -4.36  SiO2
	Rhodochrosite    -6.71  -17.74  -11.04  MnCO3
	Rhodochrosite(d)  -7.35  -17.74  -10.39  MnCO3
	Sepiolite       -19.03   -2.58   16.45  Mg2Si3O7.5OH:3H2O
	Sepiolite(d)    -21.24   -2.58   18.66  Mg2Si3O7.5OH:3H2O
	Siderite        -11.47  -22.20  -10.73  FeCO3
	Siderite(d)(3)  -11.75  -22.20  -10.45  FeCO3
	Silicagel         1.52   -1.78   -3.30  SiO2
	SiO2(a)           1.14   -1.78   -2.93  SiO2
	SrF2             -6.55  -15.17   -8.62  SrF2
	Strengite         1.87  -24.40  -26.27  FePO4:2H2O
	Strontianite     -8.46  -17.80   -9.33  SrCO3
	Sulfur           23.44    7.91  -15.53  S
	Talc            -27.34   -2.97   24.37  Mg3Si4O10(OH)2
	Thenardite       -7.15   -7.30   -0.14  Na2SO4
	Thermonatrite   -20.13  -19.83    0.30  Na2CO3:H2O
	Tremolite       -67.61   -4.82   62.79  Ca2Mg5Si8O22(OH)2
	Trona           -29.26  -28.90    0.36  NaHCO3:Na2CO3:2H2O
	Vivianite       -19.30  -55.30  -36.00  Fe3(PO4)2:8H2O
	Wairakite       -22.12  -50.51  -28.39  CaAl2Si4O12:2H2O
	Witherite        -9.14  -17.87   -8.72  BaCO3

------------------
End of simulation.
------------------

------------------------------------
Reading input data for simulation 4.
------------------------------------

	INVERSE_MODELING 1
		lon_netpath   dumplon
	        solutions 1 2
	        uncertainty 0.025
	        range
	        phases
	                Halite
	                Gypsum
	                Kaolinite               precip
	                Ca-montmorillonite      precip
	                CO2(g)
	                Calcite
	                Chalcedony              precip
	                Biotite                 dissolve
	                Plagioclase             dissolve
	        balances
	                Ca      0.05     0.025
	PHASES
	Biotite
	        KMg3AlSi3O10(OH)2 + 6H+ + 4H2O = K+ + 3Mg+2 + Al(OH)4- + 3H4SiO4 
	        log_k  0.0      # No log_k, Inverse modeling only
	Plagioclase
	        Na0.62Ca0.38Al1.38Si2.62O8 + 5.52 H+ + 2.48H2O =                 0.62Na+ + 0.38Ca+2 + 1.38Al+3 + 2.62H4SiO4
	        log_k  0.0      # No log_k, inverse modeling only
	END
---------------------------------------------
Beginning of inverse modeling 1 calculations.
---------------------------------------------

Using Cl1 standard precision optimization routine.

Post_mortem examination of inverse modeling:

	ERROR: inequality not satisfied for S(-2) eps+, 8.983544e-04

Summary of inverse modeling:

	Number of models found: 0
	Number of minimal models found: 0
	Number of infeasible sets of phases saved: 1
	Number of calls to cl1: 3
------------------
End of simulation.
------------------

------------------------------------
Reading input data for simulation 5.
------------------------------------

-----------
End of run.
-----------

No memory leaks
