   Input file: eco
  Output file: eco.out
Database file: eco.dat

------------------
Reading data base.
------------------

	SOLUTION_MASTER_SPECIES
	SOLUTION_SPECIES
	SURFACE_MASTER_SPECIES
	SURFACE_SPECIES
------------------------------------
Reading input data for simulation 1.
------------------------------------

	DATABASE eco.dat
	PHASES
	Fix_pH
		H+ = H+
		log_k 0
	END
------------------
End of simulation.
------------------

------------------------------------
Reading input data for simulation 2.
------------------------------------

	SOLUTION 1
		 units mmol/kgw
		 pH	10
		 Na	10
		 Cl	10
		 As	1 umol/kgw
		 P	1 umol/kgw
	END
-------------------------------------------
Beginning of initial solution calculations.
-------------------------------------------

Initial solution 1.	

-----------------------------Solution composition------------------------------

	Elements           Molality       Moles

	As                1.000e-06   1.000e-06
	Cl                1.000e-02   1.000e-02
	Na                1.000e-02   1.000e-02
	P                 1.000e-06   1.000e-06

----------------------------Description of solution----------------------------

                                       pH  =  10.000    
                                       pe  =   4.000    
                        Activity of water  =   1.000
                           Ionic strength  =   9.979e-03
                       Mass of water (kg)  =   1.000e+00
                 Total alkalinity (eq/kg)  =   1.134e-04
                    Total carbon (mol/kg)  =   0.000e+00
                       Total CO2 (mol/kg)  =   0.000e+00
                      Temperature (deg C)  =  25.000
                  Electrical balance (eq)  =  -1.154e-04
 Percent error, 100*(Cat-|An|)/(Cat+|An|)  =  -0.58
                               Iterations  =   4
                                  Total H  = 1.110125e+02
                                  Total O  = 5.550634e+01

----------------------------Distribution of species----------------------------

	                                           Log       Log         Log 
	Species            Molality    Activity  Molality  Activity     Gamma

	OH-               1.108e-04   9.997e-05    -3.955    -4.000    -0.045
	H+                1.108e-10   1.000e-10    -9.955   -10.000    -0.045
	H2O               5.551e+01   9.997e-01     1.744    -0.000     0.000
As               1.000e-06
	HAsO4-2           9.589e-07   6.351e-07    -6.018    -6.197    -0.179
	AsO4-3            4.069e-08   1.610e-08    -7.391    -7.793    -0.403
	H2AsO4-           4.033e-10   3.638e-10    -9.394    -9.439    -0.045
	H3AsO4            6.351e-18   6.366e-18   -17.197   -17.196     0.001
Cl               1.000e-02
	Cl-               9.920e-03   8.949e-03    -2.003    -2.048    -0.045
	NaCl              7.990e-05   8.008e-05    -4.097    -4.096     0.001
H(0)             1.413e-31
	H2                7.063e-32   7.079e-32   -31.151   -31.150     0.001
Na               1.000e-02
	Na+               9.920e-03   8.949e-03    -2.004    -2.048    -0.045
	NaCl              7.990e-05   8.008e-05    -4.097    -4.096     0.001
	NaOH              5.631e-07   5.644e-07    -6.249    -6.248     0.001
O(0)             1.659e-30
	O2                8.293e-31   8.312e-31   -30.081   -30.080     0.001
P                1.000e-06
	HPO4-2            9.914e-07   6.567e-07    -6.004    -6.183    -0.179
	PO4-3             7.412e-09   2.933e-09    -8.130    -8.533    -0.403
	H2PO4-            1.154e-09   1.041e-09    -8.938    -8.983    -0.045
	H3PO4             1.467e-17   1.470e-17   -16.834   -16.833     0.001
	(H2PO4)2-2        7.305e-19   4.838e-19   -18.136   -18.315    -0.179
	P2O7-4            8.522e-20   1.640e-20   -19.069   -19.785    -0.716
	HP2O7-3           1.065e-20   4.215e-21   -19.973   -20.375    -0.403
	H2P2O7-2          3.190e-24   2.113e-24   -23.496   -23.675    -0.179
	H3P2O7-           4.462e-32   4.026e-32   -31.350   -31.395    -0.045
	H4P2O7            0.000e+00   0.000e+00   -40.596   -40.595     0.001

------------------------------Saturation indices-------------------------------

	Phase               SI log IAP  log KT

	Fix_pH          -10.00  -10.00    0.00  H+

------------------
End of simulation.
------------------

------------------------------------
Reading input data for simulation 3.
------------------------------------

	SURFACE
		Goe_uniOH .000552 96.387 1  1.1   5
		Goe_triO  .000432
		cd_music
	END
------------------
End of simulation.
------------------

------------------------------------
Reading input data for simulation 4.
------------------------------------

	USE solution 1
	USE surface 1
	EQUILIBRIUM_PHASES
	Fix_pH -10 NaOH 10
	KNOBS
	END
-----------------------------------------
Beginning of batch-reaction calculations.
-----------------------------------------

Reaction step 1.

Using solution 1.	
Using surface 1.	
Using pure phase assemblage 1.	

-------------------------------Phase assemblage--------------------------------

                                                       Moles in assemblage
	Phase               SI log IAP  log KT     Initial       Final       Delta

	Fix_pH          -10.00  -10.00    0.00
		NaOH            is reactant      1.000e+01   1.000e+01  -1.847e-04

------------------------------Surface composition------------------------------

Goe           
	 -1.842e-04  Surface charge, plane 0, eq
	 -4.500e-06  Surface charge, plane 1, eq
	  5.940e-10  Surface charge, plane 2, eq

	 -1.844e-01  sigma, plane 0, C/m**2
	 -4.505e-03  sigma, plane 1, C/m**2
	  5.946e-07  sigma, plane 2, C/m**2
	  1.889e-01  sigma, diffuse layer, C/m**2

	 -2.712e-02  psi, plane 0, V
	  1.406e-01  psi, plane 1, V
	  1.784e-01  psi, plane 2, V

	  2.873e+00  exp(-F*psi/RT), plane 0
	  4.206e-03  exp(-F*psi/RT), plane 1
	  9.662e-04  exp(-F*psi/RT), plane 2

	  1.100e+00  capacitance 0-1, F/m^2
	  5.000e+00  capacitance 1-2, F/m^2
	  9.639e+01  specific area, m^2/g
	  9.639e+01  m^2 for   1.000e+00 g


Goe_tri       
	  4.320e-04  moles
	                                        Mole                     Log
	Species                    Moles    Fraction    Molality    Molality

	Goe_triO-0.5           2.968e-04       0.687   2.968e-04      -3.527
	Goe_triOH+0.5          1.352e-04       0.313   1.352e-04      -3.869
	Goe_triONa+0.5         2.613e-10       0.000   2.613e-10      -9.583

Goe_uni       
	  5.520e-04  moles
	                                        Mole                     Log
	Species                    Moles    Fraction    Molality    Molality

	Goe_uniOH-0.5          3.779e-04       0.685   3.779e-04      -3.423
	Goe_uniOH2+0.5         1.721e-04       0.312   1.721e-04      -3.764
	Goe_uniOAsO3-2.5       9.999e-07       0.002   9.999e-07      -6.000
	Goe_uniOPO3-2.5        9.996e-07       0.002   9.996e-07      -6.000
	Goe_uni2O2PO2-2        3.698e-10       0.000   3.698e-10      -9.432
	Goe_uniOHNa+0.5        3.327e-10       0.000   3.327e-10      -9.478
	Goe_uni2O2AsO2-2       9.291e-11       0.000   9.291e-11     -10.032
	Goe_uni2O2POOH-        6.443e-15       0.000   6.443e-15     -14.191
	Goe_uni2O2AsOOH-       4.066e-15       0.000   4.066e-15     -14.391

-----------------------------Solution composition------------------------------

	Elements           Molality       Moles

	As                4.523e-17   4.523e-17
	Cl                1.000e-02   1.000e-02
	Na                1.018e-02   1.018e-02
	P                 4.952e-17   4.952e-17

----------------------------Description of solution----------------------------

                                       pH  =  10.000      Charge balance
                                       pe  =  10.543      Adjusted to redox equilibrium
                        Activity of water  =   1.000
                           Ionic strength  =   1.007e-02
                       Mass of water (kg)  =   1.000e-00
                 Total alkalinity (eq/kg)  =   1.114e-04
                    Total carbon (mol/kg)  =   0.000e+00
                       Total CO2 (mol/kg)  =   0.000e+00
                      Temperature (deg C)  =  25.000
                  Electrical balance (eq)  =   7.332e-05
 Percent error, 100*(Cat-|An|)/(Cat+|An|)  =   0.36
                               Iterations  =  16
                                  Total H  = 1.110124e+02
                                  Total O  = 5.550651e+01

----------------------------Distribution of species----------------------------

	                                           Log       Log         Log 
	Species            Molality    Activity  Molality  Activity     Gamma

	OH-               1.109e-04   9.997e-05    -3.955    -4.000    -0.045
	H+                1.109e-10   1.000e-10    -9.955   -10.000    -0.045
	H2O               5.551e+01   9.997e-01     1.744    -0.000     0.000
As               4.523e-17
	HAsO4-2           4.337e-17   2.868e-17   -16.363   -16.542    -0.180
	AsO4-3            1.844e-18   7.271e-19   -17.734   -18.138    -0.404
	H2AsO4-           1.822e-20   1.643e-20   -19.740   -19.784    -0.045
	H3AsO4            2.868e-28   2.875e-28   -27.542   -27.541     0.001
Cl               1.000e-02
	Cl-               9.919e-03   8.944e-03    -2.004    -2.048    -0.045
	NaCl              8.130e-05   8.149e-05    -4.090    -4.089     0.001
H(0)             0.000e+00
	H2                0.000e+00   0.000e+00   -44.237   -44.236     0.001
Na               1.018e-02
	Na+               1.010e-02   9.111e-03    -1.996    -2.040    -0.045
	NaCl              8.130e-05   8.149e-05    -4.090    -4.089     0.001
	NaOH              5.733e-07   5.746e-07    -6.242    -6.241     0.001
O(0)             2.460e-04
	O2                1.230e-04   1.233e-04    -3.910    -3.909     0.001
P                4.952e-17
	HPO4-2            4.910e-17   3.247e-17   -16.309   -16.489    -0.180
	PO4-3             3.678e-19   1.450e-19   -18.434   -18.839    -0.404
	H2PO4-            5.706e-20   5.146e-20   -19.244   -19.289    -0.045
	H3PO4             7.252e-28   7.269e-28   -27.140   -27.139     0.001
	(H2PO4)2-2        1.789e-39   1.183e-39   -38.747   -38.927    -0.180
	P2O7-4            2.096e-40   0.000e+00   -39.679   -40.397    -0.718
	HP2O7-3           0.000e+00   0.000e+00   -40.583   -40.987    -0.404
	H2P2O7-2          0.000e+00   0.000e+00   -44.107   -44.287    -0.180
	H3P2O7-           0.000e+00   0.000e+00   -51.962   -52.007    -0.045
	H4P2O7            0.000e+00   0.000e+00   -61.208   -61.207     0.001

------------------------------Saturation indices-------------------------------

	Phase               SI log IAP  log KT

	Fix_pH          -10.00  -10.00    0.00  H+

------------------
End of simulation.
------------------

------------------------------------
Reading input data for simulation 5.
------------------------------------

	SOLUTION 1
		 units mmol/kgw
		 pH	8
		 Na	10
		 Cl	10
		 As	1 umol/kgw
		 P	1 umol/kgw
	USE surface 1
	EQUILIBRIUM_PHASES
	Fix_pH -8 HCl 10
	END
-------------------------------------------
Beginning of initial solution calculations.
-------------------------------------------

Initial solution 1.	

-----------------------------Solution composition------------------------------

	Elements           Molality       Moles

	As                1.000e-06   1.000e-06
	Cl                1.000e-02   1.000e-02
	Na                1.000e-02   1.000e-02
	P                 1.000e-06   1.000e-06

----------------------------Description of solution----------------------------

                                       pH  =   8.000    
                                       pe  =   4.000    
                        Activity of water  =   1.000
                           Ionic strength  =   9.924e-03
                       Mass of water (kg)  =   1.000e+00
                 Total alkalinity (eq/kg)  =   2.958e-06
                    Total carbon (mol/kg)  =   0.000e+00
                       Total CO2 (mol/kg)  =   0.000e+00
                      Temperature (deg C)  =  25.000
                  Electrical balance (eq)  =  -4.958e-06
 Percent error, 100*(Cat-|An|)/(Cat+|An|)  =  -0.02
                               Iterations  =   4
                                  Total H  = 1.110124e+02
                                  Total O  = 5.550623e+01

----------------------------Distribution of species----------------------------

	                                           Log       Log         Log 
	Species            Molality    Activity  Molality  Activity     Gamma

	OH-               1.108e-06   9.997e-07    -5.956    -6.000    -0.045
	H+                1.108e-08   1.000e-08    -7.955    -8.000    -0.045
	H2O               5.551e+01   9.997e-01     1.744    -0.000     0.000
As               1.000e-06
	HAsO4-2           9.592e-07   6.359e-07    -6.018    -6.197    -0.178
	H2AsO4-           4.037e-08   3.643e-08    -7.394    -7.439    -0.045
	AsO4-3            4.065e-10   1.612e-10    -9.391    -9.793    -0.402
	H3AsO4            6.360e-14   6.374e-14   -13.197   -13.196     0.001
Cl               1.000e-02
	Cl-               9.920e-03   8.951e-03    -2.003    -2.048    -0.045
	NaCl              7.994e-05   8.013e-05    -4.097    -4.096     0.001
H(0)             1.413e-27
	H2                7.063e-28   7.079e-28   -27.151   -27.150     0.001
Na               1.000e-02
	Na+               9.920e-03   8.951e-03    -2.003    -2.048    -0.045
	NaCl              7.994e-05   8.013e-05    -4.097    -4.096     0.001
	NaOH              5.633e-09   5.646e-09    -8.249    -8.248     0.001
O(0)             1.659e-38
	O2                8.293e-39   8.312e-39   -38.081   -38.080     0.001
P                1.000e-06
	HPO4-2            8.956e-07   5.938e-07    -6.048    -6.226    -0.178
	H2PO4-            1.043e-07   9.411e-08    -6.982    -7.026    -0.045
	PO4-3             6.687e-11   2.652e-11   -10.175   -10.576    -0.402
	H3PO4             1.326e-13   1.329e-13   -12.877   -12.876     0.001
	(H2PO4)2-2        5.967e-15   3.956e-15   -14.224   -14.403    -0.178
	HP2O7-3           8.690e-19   3.447e-19   -18.061   -18.463    -0.402
	P2O7-4            6.941e-20   1.341e-20   -19.159   -19.873    -0.714
	H2P2O7-2          2.606e-20   1.727e-20   -19.584   -19.763    -0.178
	H3P2O7-           3.648e-26   3.292e-26   -25.438   -25.483    -0.045
	H4P2O7            2.072e-33   2.077e-33   -32.684   -32.683     0.001

------------------------------Saturation indices-------------------------------

	Phase               SI log IAP  log KT

	Fix_pH           -8.00   -8.00    0.00  H+

-----------------------------------------
Beginning of batch-reaction calculations.
-----------------------------------------

Reaction step 1.

Using solution 1.	
Using surface 1.	
Using pure phase assemblage 1.	

-------------------------------Phase assemblage--------------------------------

                                                       Moles in assemblage
	Phase               SI log IAP  log KT     Initial       Final       Delta

	Fix_pH           -8.00   -8.00    0.00
		HCl             is reactant      1.000e+01   1.000e+01  -1.716e-05

------------------------------Surface composition------------------------------

Goe           
	  1.770e-05  Surface charge, plane 0, eq
	 -4.389e-06  Surface charge, plane 1, eq
	  5.970e-08  Surface charge, plane 2, eq

	  1.772e-02  sigma, plane 0, C/m**2
	 -4.394e-03  sigma, plane 1, C/m**2
	  5.977e-05  sigma, plane 2, C/m**2
	 -1.338e-02  sigma, diffuse layer, C/m**2

	  6.907e-02  psi, plane 0, V
	  5.297e-02  psi, plane 1, V
	  5.031e-02  psi, plane 2, V

	  6.797e-02  exp(-F*psi/RT), plane 0
	  1.272e-01  exp(-F*psi/RT), plane 1
	  1.411e-01  exp(-F*psi/RT), plane 2

	  1.100e+00  capacitance 0-1, F/m^2
	  5.000e+00  capacitance 1-2, F/m^2
	  9.639e+01  specific area, m^2/g
	  9.639e+01  m^2 for   1.000e+00 g


Goe_tri       
	  4.320e-04  moles
	                                        Mole                     Log
	Species                    Moles    Fraction    Molality    Molality

	Goe_triOH+0.5          2.240e-04       0.519   2.240e-04      -3.650
	Goe_triO-0.5           2.080e-04       0.481   2.080e-04      -3.682
	Goe_triONa+0.5         2.627e-08       0.000   2.627e-08      -7.581

Goe_uni       
	  5.520e-04  moles
	                                        Mole                     Log
	Species                    Moles    Fraction    Molality    Molality

	Goe_uniOH2+0.5         2.851e-04       0.517   2.851e-04      -3.545
	Goe_uniOH-0.5          2.647e-04       0.479   2.647e-04      -3.577
	Goe_uniOAsO3-2.5       9.680e-07       0.002   9.680e-07      -6.014
	Goe_uniOPO3-2.5        8.840e-07       0.002   8.840e-07      -6.054
	Goe_uni2O2PO2-2        1.158e-07       0.000   1.158e-07      -6.936
	Goe_uniOHNa+0.5        3.344e-08       0.000   3.344e-08      -7.476
	Goe_uni2O2AsO2-2       3.187e-08       0.000   3.187e-08      -7.497
	Goe_uni2O2POOH-        1.707e-10       0.000   1.707e-10      -9.768
	Goe_uni2O2AsOOH-       1.180e-10       0.000   1.180e-10      -9.928

-----------------------------Solution composition------------------------------

	Elements           Molality       Moles

	As                3.411e-13   3.411e-13
	Cl                1.002e-02   1.002e-02
	Na                1.000e-02   1.000e-02
	P                 3.777e-13   3.777e-13

----------------------------Description of solution----------------------------

                                       pH  =   8.000      Charge balance
                                       pe  =  12.543      Adjusted to redox equilibrium
                        Activity of water  =   1.000
                           Ionic strength  =   9.929e-03
                       Mass of water (kg)  =   1.000e-00
                 Total alkalinity (eq/kg)  =   1.102e-06
                    Total carbon (mol/kg)  =   0.000e+00
                       Total CO2 (mol/kg)  =   0.000e+00
                      Temperature (deg C)  =  25.000
                  Electrical balance (eq)  =  -1.832e-05
 Percent error, 100*(Cat-|An|)/(Cat+|An|)  =  -0.09
                               Iterations  =  17
                                  Total H  = 1.110119e+02
                                  Total O  = 5.550622e+01

----------------------------Distribution of species----------------------------

	                                           Log       Log         Log 
	Species            Molality    Activity  Molality  Activity     Gamma

	OH-               1.108e-06   9.997e-07    -5.956    -6.000    -0.045
	H+                1.108e-08   1.000e-08    -7.955    -8.000    -0.045
	H2O               5.551e+01   9.997e-01     1.744    -0.000     0.000
As               3.411e-13
	HAsO4-2           3.272e-13   2.169e-13   -12.485   -12.664    -0.179
	H2AsO4-           1.377e-14   1.242e-14   -13.861   -13.906    -0.045
	AsO4-3            1.386e-16   5.498e-17   -15.858   -16.260    -0.402
	H3AsO4            2.169e-20   2.174e-20   -19.664   -19.663     0.001
Cl               1.002e-02
	Cl-               9.937e-03   8.967e-03    -2.003    -2.047    -0.045
	NaCl              8.008e-05   8.026e-05    -4.096    -4.095     0.001
H(0)             0.000e+00
	H2                0.000e+00   0.000e+00   -44.237   -44.236     0.001
Na               1.000e-02
	Na+               9.920e-03   8.951e-03    -2.003    -2.048    -0.045
	NaCl              8.008e-05   8.026e-05    -4.096    -4.095     0.001
	NaOH              5.633e-09   5.646e-09    -8.249    -8.248     0.001
O(0)             2.460e-04
	O2                1.230e-04   1.233e-04    -3.910    -3.909     0.001
P                3.777e-13
	HPO4-2            3.383e-13   2.243e-13   -12.471   -12.649    -0.179
	H2PO4-            3.939e-14   3.554e-14   -13.405   -13.449    -0.045
	PO4-3             2.526e-17   1.002e-17   -16.598   -16.999    -0.402
	H3PO4             5.009e-20   5.021e-20   -19.300   -19.299     0.001
	(H2PO4)2-2        8.513e-28   5.644e-28   -27.070   -27.248    -0.179
	HP2O7-3           1.240e-31   4.917e-32   -30.907   -31.308    -0.402
	P2O7-4            9.905e-33   1.913e-33   -32.004   -32.718    -0.714
	H2P2O7-2          3.717e-33   2.464e-33   -32.430   -32.608    -0.179
	H3P2O7-           5.204e-39   4.696e-39   -38.284   -38.328    -0.045
	H4P2O7            0.000e+00   0.000e+00   -45.529   -45.528     0.001

------------------------------Saturation indices-------------------------------

	Phase               SI log IAP  log KT

	Fix_pH           -8.00   -8.00    0.00  H+

------------------
End of simulation.
------------------

------------------------------------
Reading input data for simulation 6.
------------------------------------

	SOLUTION 1
		 units mmol/kgw
		 pH	6
		 Na	10
		 Cl	10
		 As	1 umol/kgw
		 P	1 umol/kgw
	USE surface 1
	EQUILIBRIUM_PHASES
	Fix_pH -6 HCl 10
	END
-------------------------------------------
Beginning of initial solution calculations.
-------------------------------------------

Initial solution 1.	

-----------------------------Solution composition------------------------------

	Elements           Molality       Moles

	As                1.000e-06   1.000e-06
	Cl                1.000e-02   1.000e-02
	Na                1.000e-02   1.000e-02
	P                 1.000e-06   1.000e-06

----------------------------Description of solution----------------------------

                                       pH  =   6.000    
                                       pe  =   4.000    
                        Activity of water  =   1.000
                           Ionic strength  =   9.922e-03
                       Mass of water (kg)  =   1.000e+00
                 Total alkalinity (eq/kg)  =  -8.263e-07
                    Total carbon (mol/kg)  =   0.000e+00
                       Total CO2 (mol/kg)  =   0.000e+00
                      Temperature (deg C)  =  25.000
                  Electrical balance (eq)  =  -1.174e-06
 Percent error, 100*(Cat-|An|)/(Cat+|An|)  =  -0.01
                               Iterations  =   6
                                  Total H  = 1.110124e+02
                                  Total O  = 5.550622e+01

----------------------------Distribution of species----------------------------

	                                           Log       Log         Log 
	Species            Molality    Activity  Molality  Activity     Gamma

	H+                1.108e-06   1.000e-06    -5.955    -6.000    -0.045
	OH-               1.108e-08   9.997e-09    -7.956    -8.000    -0.045
	H2O               5.551e+01   9.997e-01     1.744    -0.000     0.000
As               1.000e-06
	H2AsO4-           8.079e-07   7.290e-07    -6.093    -6.137    -0.045
	HAsO4-2           1.920e-07   1.273e-07    -6.717    -6.895    -0.178
	H3AsO4            1.273e-10   1.276e-10    -9.895    -9.894     0.001
	AsO4-3            8.134e-13   3.227e-13   -12.090   -12.491    -0.402
Cl               1.000e-02
	Cl-               9.920e-03   8.951e-03    -2.003    -2.048    -0.045
	NaCl              7.995e-05   8.013e-05    -4.097    -4.096     0.001
H(0)             1.413e-23
	H2                7.063e-24   7.079e-24   -23.151   -23.150     0.001
Na               1.000e-02
	Na+               9.920e-03   8.951e-03    -2.003    -2.048    -0.045
	NaCl              7.995e-05   8.013e-05    -4.097    -4.096     0.001
	NaOH              5.633e-11   5.646e-11   -10.249   -10.248     0.001
O(0)             0.000e+00
	O2                0.000e+00   0.000e+00   -46.081   -46.080     0.001
P                1.000e-06
	H2PO4-            9.208e-07   8.309e-07    -6.036    -6.080    -0.045
	HPO4-2            7.907e-08   5.243e-08    -7.102    -7.280    -0.178
	H3PO4             1.171e-10   1.174e-10    -9.931    -9.930     0.001
	(H2PO4)2-2        4.651e-13   3.084e-13   -12.332   -12.511    -0.178
	PO4-3             5.904e-14   2.342e-14   -13.229   -13.630    -0.402
	H2P2O7-2          2.031e-18   1.347e-18   -17.692   -17.871    -0.178
	HP2O7-3           6.774e-19   2.687e-19   -18.169   -18.571    -0.402
	P2O7-4            5.410e-22   1.045e-22   -21.267   -21.981    -0.714
	H3P2O7-           2.844e-22   2.566e-22   -21.546   -21.591    -0.045
	H4P2O7            1.615e-27   1.619e-27   -26.792   -26.791     0.001

------------------------------Saturation indices-------------------------------

	Phase               SI log IAP  log KT

	Fix_pH           -6.00   -6.00    0.00  H+

-----------------------------------------
Beginning of batch-reaction calculations.
-----------------------------------------

Reaction step 1.

Using solution 1.	
Using surface 1.	
Using pure phase assemblage 1.	

-------------------------------Phase assemblage--------------------------------

                                                       Moles in assemblage
	Phase               SI log IAP  log KT     Initial       Final       Delta

	Fix_pH           -6.00   -6.00    0.00
		HCl             is reactant      1.000e+01   1.000e+01  -5.844e-05

------------------------------Surface composition------------------------------

Goe           
	  6.036e-05  Surface charge, plane 0, eq
	 -4.193e-06  Surface charge, plane 1, eq
	  4.095e-09  Surface charge, plane 2, eq

	  6.043e-02  sigma, plane 0, C/m**2
	 -4.198e-03  sigma, plane 1, C/m**2
	  4.100e-06  sigma, plane 2, C/m**2
	 -5.623e-02  sigma, diffuse layer, C/m**2

	  1.829e-01  psi, plane 0, V
	  1.280e-01  psi, plane 1, V
	  1.167e-01  psi, plane 2, V

	  8.099e-04  exp(-F*psi/RT), plane 0
	  6.871e-03  exp(-F*psi/RT), plane 1
	  1.064e-02  exp(-F*psi/RT), plane 2

	  1.100e+00  capacitance 0-1, F/m^2
	  5.000e+00  capacitance 1-2, F/m^2
	  9.639e+01  specific area, m^2/g
	  9.639e+01  m^2 for   1.000e+00 g


Goe_tri       
	  4.320e-04  moles
	                                        Mole                     Log
	Species                    Moles    Fraction    Molality    Molality

	Goe_triOH+0.5          2.428e-04       0.562   2.428e-04      -3.615
	Goe_triO-0.5           1.892e-04       0.438   1.892e-04      -3.723
	Goe_triONa+0.5         1.802e-09       0.000   1.802e-09      -8.744

Goe_uni       
	  5.520e-04  moles
	                                        Mole                     Log
	Species                    Moles    Fraction    Molality    Molality

	Goe_uniOH2+0.5         3.089e-04       0.560   3.089e-04      -3.510
	Goe_uniOH-0.5          2.407e-04       0.436   2.407e-04      -3.619
	Goe_uniOAsO3-2.5       8.994e-07       0.002   8.994e-07      -6.046
	Goe_uniOPO3-2.5        6.931e-07       0.001   6.931e-07      -6.159
	Goe_uni2O2PO2-2        3.057e-07       0.001   3.057e-07      -6.515
	Goe_uni2O2AsO2-2       9.965e-08       0.000   9.965e-08      -7.002
	Goe_uniOHNa+0.5        2.293e-09       0.000   2.293e-09      -8.640
	Goe_uni2O2POOH-        1.143e-09       0.000   1.143e-09      -8.942
	Goe_uni2O2AsOOH-       9.359e-10       0.000   9.359e-10      -9.029

-----------------------------Solution composition------------------------------

	Elements           Molality       Moles

	As                7.413e-15   7.413e-15
	Cl                1.006e-02   1.006e-02
	Na                1.000e-02   1.000e-02
	P                 1.570e-14   1.570e-14

----------------------------Description of solution----------------------------

                                       pH  =   6.000      Charge balance
                                       pe  =  14.543      Adjusted to redox equilibrium
                        Activity of water  =   1.000
                           Ionic strength  =   9.949e-03
                       Mass of water (kg)  =   1.000e-00
                 Total alkalinity (eq/kg)  =  -1.097e-06
                    Total carbon (mol/kg)  =   0.000e+00
                       Total CO2 (mol/kg)  =   0.000e+00
                      Temperature (deg C)  =  25.000
                  Electrical balance (eq)  =  -5.734e-05
 Percent error, 100*(Cat-|An|)/(Cat+|An|)  =  -0.29
                               Iterations  =  18
                                  Total H  = 1.110119e+02
                                  Total O  = 5.550622e+01

----------------------------Distribution of species----------------------------

	                                           Log       Log         Log 
	Species            Molality    Activity  Molality  Activity     Gamma

	H+                1.108e-06   1.000e-06    -5.955    -6.000    -0.045
	OH-               1.108e-08   9.997e-09    -7.955    -8.000    -0.045
	H2O               5.551e+01   9.997e-01     1.744    -0.000     0.000
As               7.413e-15
	H2AsO4-           5.988e-15   5.403e-15   -14.223   -14.267    -0.045
	HAsO4-2           1.423e-15   9.433e-16   -14.847   -15.025    -0.179
	H3AsO4            9.433e-19   9.455e-19   -18.025   -18.024     0.001
	AsO4-3            6.035e-21   2.391e-21   -20.219   -20.621    -0.402
Cl               1.006e-02
	Cl-               9.978e-03   9.003e-03    -2.001    -2.046    -0.045
	NaCl              8.039e-05   8.057e-05    -4.095    -4.094     0.001
H(0)             0.000e+00
	H2                0.000e+00   0.000e+00   -44.237   -44.236     0.001
Na               1.000e-02
	Na+               9.920e-03   8.950e-03    -2.004    -2.048    -0.045
	NaCl              8.039e-05   8.057e-05    -4.095    -4.094     0.001
	NaOH              5.632e-11   5.645e-11   -10.249   -10.248     0.001
O(0)             2.460e-04
	O2                1.230e-04   1.233e-04    -3.910    -3.909     0.001
P                1.570e-14
	H2PO4-            1.446e-14   1.305e-14   -13.840   -13.885    -0.045
	HPO4-2            1.242e-15   8.232e-16   -14.906   -15.085    -0.179
	H3PO4             1.839e-18   1.843e-18   -17.735   -17.735     0.001
	PO4-3             9.280e-22   3.677e-22   -21.032   -21.435    -0.402
	(H2PO4)2-2        1.147e-28   7.603e-29   -27.940   -28.119    -0.179
	H2P2O7-2          5.010e-34   3.320e-34   -33.300   -33.479    -0.179
	HP2O7-3           1.672e-34   6.624e-35   -33.777   -34.179    -0.402
	P2O7-4            1.336e-37   2.577e-38   -36.874   -37.589    -0.715
	H3P2O7-           7.012e-38   6.326e-38   -37.154   -37.199    -0.045
	H4P2O7            0.000e+00   0.000e+00   -42.400   -42.399     0.001

------------------------------Saturation indices-------------------------------

	Phase               SI log IAP  log KT

	Fix_pH           -6.00   -6.00    0.00  H+

------------------
End of simulation.
------------------

------------------------------------
Reading input data for simulation 7.
------------------------------------

	SOLUTION 1
		 units mmol/kgw
		 pH	4
		 Na	10
		 Cl	10
		 As	1 umol/kgw
		 P	1 umol/kgw
	USE surface 1
	EQUILIBRIUM_PHASES
	Fix_pH -4 HCl 10
	END
-------------------------------------------
Beginning of initial solution calculations.
-------------------------------------------

Initial solution 1.	

-----------------------------Solution composition------------------------------

	Elements           Molality       Moles

	As                1.000e-06   1.000e-06
	Cl                1.000e-02   1.000e-02
	Na                1.000e-02   1.000e-02
	P                 1.000e-06   1.000e-06

----------------------------Description of solution----------------------------

                                       pH  =   4.000    
                                       pe  =   4.000    
                        Activity of water  =   1.000
                           Ionic strength  =   9.977e-03
                       Mass of water (kg)  =   1.000e+00
                 Total alkalinity (eq/kg)  =  -1.109e-04
                    Total carbon (mol/kg)  =   0.000e+00
                       Total CO2 (mol/kg)  =   0.000e+00
                      Temperature (deg C)  =  25.000
                  Electrical balance (eq)  =   1.089e-04
 Percent error, 100*(Cat-|An|)/(Cat+|An|)  =   0.55
                               Iterations  =   3
                                  Total H  = 1.110125e+02
                                  Total O  = 5.550622e+01

----------------------------Distribution of species----------------------------

	                                           Log       Log         Log 
	Species            Molality    Activity  Molality  Activity     Gamma

	H+                1.108e-04   1.000e-04    -3.955    -4.000    -0.045
	OH-               1.108e-10   9.997e-11    -9.955   -10.000    -0.045
	H2O               5.551e+01   9.997e-01     1.744    -0.000     0.000
As               1.000e-06
	H2AsO4-           9.822e-07   8.861e-07    -6.008    -6.053    -0.045
	H3AsO4            1.547e-08   1.550e-08    -7.811    -7.810     0.001
	HAsO4-2           2.335e-09   1.547e-09    -8.632    -8.811    -0.179
	AsO4-3            9.909e-17   3.922e-17   -16.004   -16.407    -0.403
Cl               1.000e-02
	Cl-               9.920e-03   8.949e-03    -2.003    -2.048    -0.045
	NaCl              7.991e-05   8.009e-05    -4.097    -4.096     0.001
H(0)             1.413e-19
	H2                7.063e-20   7.079e-20   -19.151   -19.150     0.001
Na               1.000e-02
	Na+               9.920e-03   8.949e-03    -2.003    -2.048    -0.045
	NaCl              7.991e-05   8.009e-05    -4.097    -4.096     0.001
	NaOH              5.632e-13   5.645e-13   -12.249   -12.248     0.001
O(0)             0.000e+00
	O2                0.000e+00   0.000e+00   -54.081   -54.080     0.001
P                1.000e-06
	H2PO4-            9.866e-07   8.901e-07    -6.006    -6.051    -0.045
	H3PO4             1.254e-08   1.257e-08    -7.902    -7.901     0.001
	HPO4-2            8.479e-10   5.616e-10    -9.072    -9.251    -0.179
	(H2PO4)2-2        5.342e-13   3.539e-13   -12.272   -12.451    -0.179
	PO4-3             6.338e-18   2.509e-18   -17.198   -17.601    -0.403
	H2P2O7-2          2.333e-18   1.545e-18   -17.632   -17.811    -0.179
	H3P2O7-           3.264e-20   2.944e-20   -19.486   -19.531    -0.045
	HP2O7-3           7.790e-21   3.083e-21   -20.108   -20.511    -0.403
	H4P2O7            1.853e-23   1.858e-23   -22.732   -22.731     0.001
	P2O7-4            6.232e-26   1.199e-26   -25.205   -25.921    -0.716

------------------------------Saturation indices-------------------------------

	Phase               SI log IAP  log KT

	Fix_pH           -4.00   -4.00    0.00  H+

-----------------------------------------
Beginning of batch-reaction calculations.
-----------------------------------------

Reaction step 1.

Using solution 1.	
Using surface 1.	
Using pure phase assemblage 1.	

-------------------------------Phase assemblage--------------------------------

                                                       Moles in assemblage
	Phase               SI log IAP  log KT     Initial       Final       Delta

	Fix_pH           -4.00   -4.00    0.00
		HCl             is reactant      1.000e+01   1.000e+01  -1.236e-04

------------------------------Surface composition------------------------------

Goe           
	  1.252e-04  Surface charge, plane 0, eq
	 -3.620e-06  Surface charge, plane 1, eq
	  7.578e-10  Surface charge, plane 2, eq

	  1.254e-01  sigma, plane 0, C/m**2
	 -3.624e-03  sigma, plane 1, C/m**2
	  7.586e-07  sigma, plane 2, C/m**2
	 -1.217e-01  sigma, diffuse layer, C/m**2

	  2.941e-01  psi, plane 0, V
	  1.801e-01  psi, plane 1, V
	  1.558e-01  psi, plane 2, V

	  1.067e-05  exp(-F*psi/RT), plane 0
	  9.010e-04  exp(-F*psi/RT), plane 1
	  2.324e-03  exp(-F*psi/RT), plane 2

	  1.100e+00  capacitance 0-1, F/m^2
	  5.000e+00  capacitance 1-2, F/m^2
	  9.639e+01  specific area, m^2/g
	  9.639e+01  m^2 for   1.000e+00 g


Goe_tri       
	  4.320e-04  moles
	                                        Mole                     Log
	Species                    Moles    Fraction    Molality    Molality

	Goe_triOH+0.5          2.715e-04       0.628   2.715e-04      -3.566
	Goe_triO-0.5           1.605e-04       0.372   1.605e-04      -3.795
	Goe_triONa+0.5         3.338e-10       0.000   3.338e-10      -9.477

Goe_uni       
	  5.520e-04  moles
	                                        Mole                     Log
	Species                    Moles    Fraction    Molality    Molality

	Goe_uniOH2+0.5         3.449e-04       0.625   3.449e-04      -3.462
	Goe_uniOH-0.5          2.039e-04       0.369   2.039e-04      -3.691
	Goe_uni2O2PO2-2        7.257e-07       0.003   7.257e-07      -6.139
	Goe_uniOAsO3-2.5       5.813e-07       0.001   5.813e-07      -6.236
	Goe_uni2O2AsO2-2       4.029e-07       0.001   4.029e-07      -6.395
	Goe_uniOPO3-2.5        2.630e-07       0.000   2.630e-07      -6.580
	Goe_uni2O2AsOOH-       1.573e-08       0.000   1.573e-08      -7.803
	Goe_uni2O2POOH-        1.128e-08       0.000   1.128e-08      -7.948
	Goe_uniOHNa+0.5        4.240e-10       0.000   4.240e-10      -9.373

-----------------------------Solution composition------------------------------

	Elements           Molality       Moles

	As                1.421e-14   1.421e-14
	Cl                1.012e-02   1.012e-02
	Na                1.000e-02   1.000e-02
	P                 2.005e-14   2.005e-14

----------------------------Description of solution----------------------------

                                       pH  =   4.000      Charge balance
                                       pe  =  16.543      Adjusted to redox equilibrium
                        Activity of water  =   1.000
                           Ionic strength  =   1.004e-02
                       Mass of water (kg)  =   1.000e-00
                 Total alkalinity (eq/kg)  =  -1.109e-04
                    Total carbon (mol/kg)  =   0.000e+00
                       Total CO2 (mol/kg)  =   0.000e+00
                      Temperature (deg C)  =  25.000
                  Electrical balance (eq)  =  -1.273e-05
 Percent error, 100*(Cat-|An|)/(Cat+|An|)  =  -0.06
                               Iterations  =  23
                                  Total H  = 1.110121e+02
                                  Total O  = 5.550622e+01

----------------------------Distribution of species----------------------------

	                                           Log       Log         Log 
	Species            Molality    Activity  Molality  Activity     Gamma

	H+                1.109e-04   1.000e-04    -3.955    -4.000    -0.045
	OH-               1.108e-10   9.997e-11    -9.955   -10.000    -0.045
	H2O               5.551e+01   9.997e-01     1.744    -0.000     0.000
As               1.421e-14
	H2AsO4-           1.396e-14   1.259e-14   -13.855   -13.900    -0.045
	H3AsO4            2.198e-16   2.203e-16   -15.658   -15.657     0.001
	HAsO4-2           3.321e-17   2.198e-17   -16.479   -16.658    -0.179
	AsO4-3            1.411e-24   5.571e-25   -23.850   -24.254    -0.404
Cl               1.012e-02
	Cl-               1.004e-02   9.058e-03    -1.998    -2.043    -0.045
	NaCl              8.084e-05   8.103e-05    -4.092    -4.091     0.001
H(0)             0.000e+00
	H2                0.000e+00   0.000e+00   -44.237   -44.236     0.001
Na               1.000e-02
	Na+               9.919e-03   8.946e-03    -2.004    -2.048    -0.045
	NaCl              8.084e-05   8.103e-05    -4.092    -4.091     0.001
	NaOH              5.630e-13   5.643e-13   -12.250   -12.249     0.001
O(0)             2.460e-04
	O2                1.230e-04   1.233e-04    -3.910    -3.909     0.001
P                2.005e-14
	H2PO4-            1.978e-14   1.784e-14   -13.704   -13.749    -0.045
	H3PO4             2.515e-16   2.520e-16   -15.600   -15.599     0.001
	HPO4-2            1.702e-17   1.126e-17   -16.769   -16.949    -0.179
	PO4-3             1.274e-25   5.029e-26   -24.895   -25.299    -0.404
	(H2PO4)2-2        2.149e-28   1.422e-28   -27.668   -27.847    -0.179
	H2P2O7-2          9.386e-34   6.210e-34   -33.028   -33.207    -0.179
	H3P2O7-           1.312e-35   1.183e-35   -34.882   -34.927    -0.045
	HP2O7-3           3.138e-36   1.239e-36   -35.503   -35.907    -0.404
	H4P2O7            7.449e-39   7.466e-39   -38.128   -38.127     0.001
	P2O7-4            0.000e+00   0.000e+00   -40.599   -41.317    -0.717

------------------------------Saturation indices-------------------------------

	Phase               SI log IAP  log KT

	Fix_pH           -4.00   -4.00    0.00  H+

------------------
End of simulation.
------------------

------------------------------------
Reading input data for simulation 8.
------------------------------------

-----------
End of run.
-----------

No memory leaks
