   Input file: ex2
  Output file: ex2.out
Database file: ../database/phreeqc.dat

------------------
Reading data base.
------------------

	SOLUTION_MASTER_SPECIES
	SOLUTION_SPECIES
	PHASES
	EXCHANGE_MASTER_SPECIES
	EXCHANGE_SPECIES
	SURFACE_MASTER_SPECIES
	SURFACE_SPECIES
	RATES
	END
------------------------------------
Reading input data for simulation 1.
------------------------------------

	DATABASE ../database/phreeqc.dat
	knobs
		logfile
	TITLE 
	Example 2.--Temperature dependence of solubility
	            of gypsum and anhydrite
	SOLUTION 1 Pure water
	        pH      7.0
	        temp    25.0                
	EQUILIBRIUM_PHASES 1
	        Gypsum          0.0     1.0
	        Anhydrite       0.0     1.0
	REACTION_TEMPERATURE 1
	        25.0 75.0 in 51 steps
	SELECTED_OUTPUT
	        file   ex2.pun
	        si     anhydrite  gypsum
	END
-----
TITLE
-----

Example 2.--Temperature dependence of solubility
            of gypsum and anhydrite

-------------------------------------------
Beginning of initial solution calculations.
-------------------------------------------

Initial solution 1.	Pure water

-----------------------------Solution composition------------------------------

	Elements           Molality       Moles

	Pure water     

----------------------------Description of solution----------------------------

                                       pH  =   7.000    
                                       pe  =   4.000    
                        Activity of water  =   1.000
                           Ionic strength  =   1.001e-07
                       Mass of water (kg)  =   1.000e+00
                 Total alkalinity (eq/kg)  =   1.082e-10
                    Total carbon (mol/kg)  =   0.000e+00
                       Total CO2 (mol/kg)  =   0.000e+00
                      Temperature (deg C)  =  25.000
                  Electrical balance (eq)  =  -1.082e-10
 Percent error, 100*(Cat-|An|)/(Cat+|An|)  =  -0.05
                               Iterations  =   0
                                  Total H  = 1.110124e+02
                                  Total O  = 5.550622e+01

----------------------------Distribution of species----------------------------

	                                           Log       Log         Log 
	Species            Molality    Activity  Molality  Activity     Gamma

	OH-               1.002e-07   1.001e-07    -6.999    -6.999    -0.000
	H+                1.001e-07   1.000e-07    -7.000    -7.000    -0.000
	H2O               5.551e+01   1.000e+00     1.744     0.000     0.000
H(0)             1.416e-25
	H2                7.079e-26   7.079e-26   -25.150   -25.150     0.000
O(0)             0.000e+00
	O2                0.000e+00   0.000e+00   -42.080   -42.080     0.000

------------------------------Saturation indices-------------------------------

	Phase               SI log IAP  log KT

	H2(g)           -22.00  -25.15   -3.15  H2
	H2O(g)           -1.51    0.00    1.51  H2O
	O2(g)           -39.19  -42.08   -2.89  O2

-----------------------------------------
Beginning of batch-reaction calculations.
-----------------------------------------

Reaction step 1.

Using solution 1.	Pure water
Using pure phase assemblage 1.	
Using temperature 1.	

-------------------------------Phase assemblage--------------------------------

                                                     Moles in assemblage
	Phase               SI log IAP  log KT    Initial      Final      Delta

	Anhydrite        -0.22   -4.58   -4.36  1.000e+00            -1.000e+00
	Gypsum            0.00   -4.58   -4.58  1.000e+00  1.985e+00  9.849e-01

-----------------------------Solution composition------------------------------

	Elements           Molality       Moles

	Ca                1.564e-02   1.508e-02
	S                 1.564e-02   1.508e-02

----------------------------Description of solution----------------------------

                                       pH  =   7.067      Charge balance
                                       pe  =  10.685      Adjusted to redox equilibrium
                        Activity of water  =   1.000
                           Ionic strength  =   4.178e-02
                       Mass of water (kg)  =   9.645e-01
                 Total alkalinity (eq/kg)  =   1.122e-10
                    Total carbon (mol/kg)  =   0.000e+00
                       Total CO2 (mol/kg)  =   0.000e+00
                      Temperature (deg C)  =  25.000
                  Electrical balance (eq)  =  -1.082e-10
 Percent error, 100*(Cat-|An|)/(Cat+|An|)  =  -0.00
                               Iterations  =  17
                                  Total H  = 1.070728e+02
                                  Total O  = 5.359671e+01

----------------------------Distribution of species----------------------------

	                                           Log       Log         Log 
	Species            Molality    Activity  Molality  Activity     Gamma

	OH-               1.417e-07   1.167e-07    -6.849    -6.933    -0.084
	H+                9.957e-08   8.575e-08    -7.002    -7.067    -0.065
	H2O               5.551e+01   9.996e-01     1.744    -0.000     0.000
Ca               1.564e-02
	Ca+2              1.045e-02   5.176e-03    -1.981    -2.286    -0.305
	CaSO4             5.191e-03   5.242e-03    -2.285    -2.281     0.004
	CaOH+             1.204e-08   1.001e-08    -7.919    -7.999    -0.080
	CaHSO4+           3.166e-09   2.633e-09    -8.499    -8.580    -0.080
H(0)             4.393e-39
	H2                2.196e-39   2.218e-39   -38.658   -38.654     0.004
O(0)             1.677e-15
	O2                8.387e-16   8.469e-16   -15.076   -15.072     0.004
S(-2)            0.000e+00
	HS-               0.000e+00   0.000e+00  -117.643  -117.727    -0.084
	H2S               0.000e+00   0.000e+00  -117.856  -117.852     0.004
	S-2               0.000e+00   0.000e+00  -123.266  -123.578    -0.312
S(6)             1.564e-02
	SO4-2             1.045e-02   5.075e-03    -1.981    -2.295    -0.313
	CaSO4             5.191e-03   5.242e-03    -2.285    -2.281     0.004
	HSO4-             5.088e-08   4.231e-08    -7.293    -7.374    -0.080
	CaHSO4+           3.166e-09   2.633e-09    -8.499    -8.580    -0.080

------------------------------Saturation indices-------------------------------

	Phase               SI log IAP  log KT

	Anhydrite        -0.22   -4.58   -4.36  CaSO4
	Gypsum           -0.00   -4.58   -4.58  CaSO4:2H2O
	H2(g)           -35.50  -38.65   -3.15  H2
	H2O(g)           -1.51   -0.00    1.51  H2O
	H2S(g)         -116.85 -117.85   -1.00  H2S
	O2(g)           -12.18  -15.07   -2.89  O2
	Sulfur          -87.23  -82.35    4.88  S

Reaction step 2.

Using solution 1.	Pure water
Using pure phase assemblage 1.	
Using temperature 1.	

-------------------------------Phase assemblage--------------------------------

                                                     Moles in assemblage
	Phase               SI log IAP  log KT    Initial      Final      Delta

	Anhydrite        -0.22   -4.58   -4.37  1.000e-00            -1.000e-00
	Gypsum            0.00   -4.58   -4.58  1.000e+00  1.985e+00  9.849e-01

-----------------------------Solution composition------------------------------

	Elements           Molality       Moles

	Ca                1.569e-02   1.514e-02
	S                 1.569e-02   1.514e-02

----------------------------Description of solution----------------------------

                                       pH  =   7.053      Charge balance
                                       pe  =  10.616      Adjusted to redox equilibrium
                        Activity of water  =   1.000
                           Ionic strength  =   4.182e-02
                       Mass of water (kg)  =   9.645e-01
                 Total alkalinity (eq/kg)  =   1.122e-10
                    Total carbon (mol/kg)  =   0.000e+00
                       Total CO2 (mol/kg)  =   0.000e+00
                      Temperature (deg C)  =  26.000
                  Electrical balance (eq)  =  -1.082e-10
 Percent error, 100*(Cat-|An|)/(Cat+|An|)  =  -0.00
                               Iterations  =  17
                                  Total H  = 1.070730e+02
                                  Total O  = 5.359703e+01

----------------------------Distribution of species----------------------------

	                                           Log       Log         Log 
	Species            Molality    Activity  Molality  Activity     Gamma

	OH-               1.482e-07   1.220e-07    -6.829    -6.914    -0.084
	H+                1.027e-07   8.845e-08    -6.988    -7.053    -0.065
	H2O               5.551e+01   9.996e-01     1.744    -0.000     0.000
Ca               1.569e-02
	Ca+2              1.046e-02   5.174e-03    -1.981    -2.286    -0.306
	CaSO4             5.236e-03   5.287e-03    -2.281    -2.277     0.004
	CaOH+             1.167e-08   9.704e-09    -7.933    -8.013    -0.080
	CaHSO4+           3.337e-09   2.774e-09    -8.477    -8.557    -0.080
H(0)             6.364e-39
	H2                3.182e-39   3.213e-39   -38.497   -38.493     0.004
O(0)             1.676e-15
	O2                8.381e-16   8.462e-16   -15.077   -15.073     0.004
S(-2)            0.000e+00
	HS-               0.000e+00   0.000e+00  -117.115  -117.200    -0.084
	H2S               0.000e+00   0.000e+00  -117.328  -117.324     0.004
	S-2               0.000e+00   0.000e+00  -122.722  -123.035    -0.312
S(6)             1.569e-02
	SO4-2             1.046e-02   5.073e-03    -1.981    -2.295    -0.314
	CaSO4             5.236e-03   5.287e-03    -2.281    -2.277     0.004
	HSO4-             5.364e-08   4.459e-08    -7.270    -7.351    -0.080
	CaHSO4+           3.337e-09   2.774e-09    -8.477    -8.557    -0.080

------------------------------Saturation indices-------------------------------

	Phase               SI log IAP  log KT

	Anhydrite        -0.22   -4.58   -4.37  CaSO4
	Gypsum            0.00   -4.58   -4.58  CaSO4:2H2O
	H2(g)           -35.34  -38.49   -3.15  H2
	H2O(g)           -1.48   -0.00    1.48  H2O
	H2S(g)         -116.32 -117.32   -1.01  H2S
	O2(g)           -12.17  -15.07   -2.90  O2
	Sulfur          -86.84  -81.99    4.86  S

Reaction step 3.

Using solution 1.	Pure water
Using pure phase assemblage 1.	
Using temperature 1.	

-------------------------------Phase assemblage--------------------------------

                                                     Moles in assemblage
	Phase               SI log IAP  log KT    Initial      Final      Delta

	Anhydrite        -0.21   -4.58   -4.37  1.000e-00            -1.000e-00
	Gypsum           -0.00   -4.58   -4.58  1.000e+00  1.985e+00  9.848e-01

-----------------------------Solution composition------------------------------

	Elements           Molality       Moles

	Ca                1.574e-02   1.519e-02
	S                 1.574e-02   1.519e-02

----------------------------Description of solution----------------------------

                                       pH  =   7.040      Charge balance
                                       pe  =  10.548      Adjusted to redox equilibrium
                        Activity of water  =   1.000
                           Ionic strength  =   4.186e-02
                       Mass of water (kg)  =   9.645e-01
                 Total alkalinity (eq/kg)  =   1.122e-10
                    Total carbon (mol/kg)  =   0.000e+00
                       Total CO2 (mol/kg)  =   0.000e+00
                      Temperature (deg C)  =  27.000
                  Electrical balance (eq)  =  -1.082e-10
 Percent error, 100*(Cat-|An|)/(Cat+|An|)  =  -0.00
                               Iterations  =  19
                                  Total H  = 1.070732e+02
                                  Total O  = 5.359733e+01

----------------------------Distribution of species----------------------------

	                                           Log       Log         Log 
	Species            Molality    Activity  Molality  Activity     Gamma

	OH-               1.548e-07   1.274e-07    -6.810    -6.895    -0.085
	H+                1.060e-07   9.122e-08    -6.975    -7.040    -0.065
	H2O               5.551e+01   9.996e-01     1.744    -0.000     0.000
Ca               1.574e-02
	Ca+2              1.047e-02   5.172e-03    -1.980    -2.286    -0.306
	CaSO4             5.279e-03   5.330e-03    -2.277    -2.273     0.004
	CaOH+             1.132e-08   9.405e-09    -7.946    -8.027    -0.080
	CaHSO4+           3.516e-09   2.922e-09    -8.454    -8.534    -0.080
H(0)             9.173e-39
	H2                4.587e-39   4.631e-39   -38.339   -38.334     0.004
O(0)             1.684e-15
	O2                8.418e-16   8.499e-16   -15.075   -15.071     0.004
S(-2)            0.000e+00
	HS-               0.000e+00   0.000e+00  -116.596  -116.681    -0.085
	H2S               0.000e+00   0.000e+00  -116.809  -116.805     0.004
	S-2               0.000e+00   0.000e+00  -122.187  -122.500    -0.313
S(6)             1.574e-02
	SO4-2             1.047e-02   5.071e-03    -1.980    -2.295    -0.315
	CaSO4             5.279e-03   5.330e-03    -2.277    -2.273     0.004
	HSO4-             5.655e-08   4.699e-08    -7.248    -7.328    -0.080
	CaHSO4+           3.516e-09   2.922e-09    -8.454    -8.534    -0.080

------------------------------Saturation indices-------------------------------

	Phase               SI log IAP  log KT

	Anhydrite        -0.21   -4.58   -4.37  CaSO4
	Gypsum           -0.00   -4.58   -4.58  CaSO4:2H2O
	H2(g)           -35.18  -38.33   -3.16  H2
	H2O(g)           -1.46   -0.00    1.46  H2O
	H2S(g)         -115.79 -116.80   -1.02  H2S
	O2(g)           -12.16  -15.07   -2.91  O2
	Sulfur          -86.46  -81.63    4.84  S

Reaction step 4.

Using solution 1.	Pure water
Using pure phase assemblage 1.	
Using temperature 1.	

-------------------------------Phase assemblage--------------------------------

                                                     Moles in assemblage
	Phase               SI log IAP  log KT    Initial      Final      Delta

	Anhydrite        -0.21   -4.58   -4.37  1.000e-00            -1.000e-00
	Gypsum            0.00   -4.58   -4.58  1.000e+00  1.985e+00  9.848e-01

-----------------------------Solution composition------------------------------

	Elements           Molality       Moles

	Ca                1.579e-02   1.523e-02
	S                 1.579e-02   1.523e-02

----------------------------Description of solution----------------------------

                                       pH  =   7.027      Charge balance
                                       pe  =  10.480      Adjusted to redox equilibrium
                        Activity of water  =   1.000
                           Ionic strength  =   4.189e-02
                       Mass of water (kg)  =   9.645e-01
                 Total alkalinity (eq/kg)  =   1.122e-10
                    Total carbon (mol/kg)  =   0.000e+00
                       Total CO2 (mol/kg)  =   0.000e+00
                      Temperature (deg C)  =  28.000
                  Electrical balance (eq)  =  -1.082e-10
 Percent error, 100*(Cat-|An|)/(Cat+|An|)  =  -0.00
                               Iterations  =  17
                                  Total H  = 1.070734e+02
                                  Total O  = 5.359762e+01

----------------------------Distribution of species----------------------------

	                                           Log       Log         Log 
	Species            Molality    Activity  Molality  Activity     Gamma

	OH-               1.617e-07   1.330e-07    -6.791    -6.876    -0.085
	H+                1.093e-07   9.404e-08    -6.961    -7.027    -0.065
	H2O               5.551e+01   9.996e-01     1.744    -0.000     0.000
Ca               1.579e-02
	Ca+2              1.047e-02   5.168e-03    -1.980    -2.287    -0.307
	CaSO4             5.321e-03   5.373e-03    -2.274    -2.270     0.004
	CaOH+             1.097e-08   9.117e-09    -7.960    -8.040    -0.081
	CaHSO4+           3.703e-09   3.076e-09    -8.431    -8.512    -0.081
H(0)             1.321e-38
	H2                6.606e-39   6.670e-39   -38.180   -38.176     0.004
O(0)             1.686e-15
	O2                8.428e-16   8.509e-16   -15.074   -15.070     0.004
S(-2)            0.000e+00
	HS-               0.000e+00   0.000e+00  -116.078  -116.162    -0.085
	H2S               0.000e+00   0.000e+00  -116.290  -116.285     0.004
	S-2               0.000e+00   0.000e+00  -121.652  -121.965    -0.314
S(6)             1.579e-02
	SO4-2             1.047e-02   5.067e-03    -1.980    -2.295    -0.315
	CaSO4             5.321e-03   5.373e-03    -2.274    -2.270     0.004
	HSO4-             5.959e-08   4.950e-08    -7.225    -7.305    -0.081
	CaHSO4+           3.703e-09   3.076e-09    -8.431    -8.512    -0.081

------------------------------Saturation indices-------------------------------

	Phase               SI log IAP  log KT

	Anhydrite        -0.21   -4.58   -4.37  CaSO4
	Gypsum            0.00   -4.58   -4.58  CaSO4:2H2O
	H2(g)           -35.01  -38.18   -3.16  H2
	H2O(g)           -1.43   -0.00    1.43  H2O
	H2S(g)         -115.26 -116.29   -1.03  H2S
	O2(g)           -12.16  -15.07   -2.91  O2
	Sulfur          -86.08  -81.27    4.81  S

Reaction step 5.

Using solution 1.	Pure water
Using pure phase assemblage 1.	
Using temperature 1.	

-------------------------------Phase assemblage--------------------------------

                                                     Moles in assemblage
	Phase               SI log IAP  log KT    Initial      Final      Delta

	Anhydrite        -0.20   -4.58   -4.38  1.000e-00            -1.000e-00
	Gypsum            0.00   -4.58   -4.58  1.000e+00  1.985e+00  9.847e-01

-----------------------------Solution composition------------------------------

	Elements           Molality       Moles

	Ca                1.584e-02   1.528e-02
	S                 1.584e-02   1.528e-02

----------------------------Description of solution----------------------------

                                       pH  =   7.014      Charge balance
                                       pe  =  10.413      Adjusted to redox equilibrium
                        Activity of water  =   1.000
                           Ionic strength  =   4.191e-02
                       Mass of water (kg)  =   9.645e-01
                 Total alkalinity (eq/kg)  =   1.122e-10
                    Total carbon (mol/kg)  =   0.000e+00
                       Total CO2 (mol/kg)  =   0.000e+00
                      Temperature (deg C)  =  29.000
                  Electrical balance (eq)  =  -1.012e-10
 Percent error, 100*(Cat-|An|)/(Cat+|An|)  =  -0.00
                               Iterations  =  18
                                  Total H  = 1.070735e+02
                                  Total O  = 5.359788e+01

----------------------------Distribution of species----------------------------

	                                           Log       Log         Log 
	Species            Molality    Activity  Molality  Activity     Gamma

	OH-               1.688e-07   1.388e-07    -6.773    -6.858    -0.085
	H+                1.127e-07   9.693e-08    -6.948    -7.014    -0.065
	H2O               5.551e+01   9.996e-01     1.744    -0.000     0.000
Ca               1.584e-02
	Ca+2              1.048e-02   5.164e-03    -1.980    -2.287    -0.307
	CaSO4             5.361e-03   5.413e-03    -2.271    -2.267     0.004
	CaOH+             1.064e-08   8.838e-09    -7.973    -8.054    -0.081
	CaHSO4+           3.899e-09   3.238e-09    -8.409    -8.490    -0.081
H(0)             1.894e-38
	H2                9.469e-39   9.561e-39   -38.024   -38.019     0.004
O(0)             1.695e-15
	O2                8.477e-16   8.559e-16   -15.072   -15.068     0.004
S(-2)            0.000e+00
	HS-               0.000e+00   0.000e+00  -115.567  -115.652    -0.085
	H2S               0.000e+00   0.000e+00  -115.778  -115.774     0.004
	S-2               0.000e+00   0.000e+00  -121.124  -121.439    -0.314
S(6)             1.584e-02
	SO4-2             1.048e-02   5.063e-03    -1.980    -2.296    -0.316
	CaSO4             5.361e-03   5.413e-03    -2.271    -2.267     0.004
	HSO4-             6.279e-08   5.214e-08    -7.202    -7.283    -0.081
	CaHSO4+           3.899e-09   3.238e-09    -8.409    -8.490    -0.081

------------------------------Saturation indices-------------------------------

	Phase               SI log IAP  log KT

	Anhydrite        -0.20   -4.58   -4.38  CaSO4
	Gypsum            0.00   -4.58   -4.58  CaSO4:2H2O
	H2(g)           -34.85  -38.02   -3.17  H2
	H2O(g)           -1.41   -0.00    1.41  H2O
	H2S(g)         -114.73 -115.77   -1.04  H2S
	O2(g)           -12.15  -15.07   -2.92  O2
	Sulfur          -85.71  -80.92    4.79  S

Reaction step 6.

Using solution 1.	Pure water
Using pure phase assemblage 1.	
Using temperature 1.	

-------------------------------Phase assemblage--------------------------------

                                                     Moles in assemblage
	Phase               SI log IAP  log KT    Initial      Final      Delta

	Anhydrite        -0.20   -4.58   -4.39  1.000e-00            -1.000e-00
	Gypsum           -0.00   -4.58   -4.58  1.000e+00  1.985e+00  9.847e-01

-----------------------------Solution composition------------------------------

	Elements           Molality       Moles

	Ca                1.588e-02   1.532e-02
	S                 1.588e-02   1.532e-02

----------------------------Description of solution----------------------------

                                       pH  =   7.001      Charge balance
                                       pe  =  10.344      Adjusted to redox equilibrium
                        Activity of water  =   1.000
                           Ionic strength  =   4.193e-02
                       Mass of water (kg)  =   9.645e-01
                 Total alkalinity (eq/kg)  =   1.122e-10
                    Total carbon (mol/kg)  =   0.000e+00
                       Total CO2 (mol/kg)  =   0.000e+00
                      Temperature (deg C)  =  30.000
                  Electrical balance (eq)  =  -9.775e-11
 Percent error, 100*(Cat-|An|)/(Cat+|An|)  =  -0.00
                               Iterations  =  16
                                  Total H  = 1.070737e+02
                                  Total O  = 5.359813e+01

----------------------------Distribution of species----------------------------

	                                           Log       Log         Log 
	Species            Molality    Activity  Molality  Activity     Gamma

	OH-               1.762e-07   1.448e-07    -6.754    -6.839    -0.085
	H+                1.161e-07   9.988e-08    -6.935    -7.001    -0.065
	H2O               5.551e+01   9.996e-01     1.744    -0.000     0.000
Ca               1.588e-02
	Ca+2              1.048e-02   5.160e-03    -1.980    -2.287    -0.308
	CaSO4             5.400e-03   5.453e-03    -2.268    -2.263     0.004
	CaOH+             1.032e-08   8.569e-09    -7.986    -8.067    -0.081
	CaHSO4+           4.103e-09   3.406e-09    -8.387    -8.468    -0.081
H(0)             2.729e-38
	H2                1.364e-38   1.378e-38   -37.865   -37.861     0.004
O(0)             1.680e-15
	O2                8.399e-16   8.481e-16   -15.076   -15.072     0.004
S(-2)            0.000e+00
	HS-               0.000e+00   0.000e+00  -115.046  -115.131    -0.085
	H2S               0.000e+00   0.000e+00  -115.256  -115.252     0.004
	S-2               0.000e+00   0.000e+00  -120.588  -120.903    -0.315
S(6)             1.588e-02
	SO4-2             1.048e-02   5.059e-03    -1.980    -2.296    -0.316
	CaSO4             5.400e-03   5.453e-03    -2.268    -2.263     0.004
	HSO4-             6.614e-08   5.491e-08    -7.180    -7.260    -0.081
	CaHSO4+           4.103e-09   3.406e-09    -8.387    -8.468    -0.081

------------------------------Saturation indices-------------------------------

	Phase               SI log IAP  log KT

	Anhydrite        -0.20   -4.58   -4.39  CaSO4
	Gypsum           -0.00   -4.58   -4.58  CaSO4:2H2O
	H2(g)           -34.69  -37.86   -3.17  H2
	H2O(g)           -1.38   -0.00    1.38  H2O
	H2S(g)         -114.20 -115.25   -1.05  H2S
	O2(g)           -12.14  -15.07   -2.93  O2
	Sulfur          -85.33  -80.56    4.77  S

Reaction step 7.

Using solution 1.	Pure water
Using pure phase assemblage 1.	
Using temperature 1.	

-------------------------------Phase assemblage--------------------------------

                                                     Moles in assemblage
	Phase               SI log IAP  log KT    Initial      Final      Delta

	Anhydrite        -0.19   -4.58   -4.39  1.000e-00            -1.000e-00
	Gypsum            0.00   -4.58   -4.58  1.000e+00  1.985e+00  9.846e-01

-----------------------------Solution composition------------------------------

	Elements           Molality       Moles

	Ca                1.592e-02   1.536e-02
	S                 1.592e-02   1.536e-02

----------------------------Description of solution----------------------------

                                       pH  =   6.988      Charge balance
                                       pe  =  10.277      Adjusted to redox equilibrium
                        Activity of water  =   1.000
                           Ionic strength  =   4.194e-02
                       Mass of water (kg)  =   9.645e-01
                 Total alkalinity (eq/kg)  =   1.122e-10
                    Total carbon (mol/kg)  =   0.000e+00
                       Total CO2 (mol/kg)  =   0.000e+00
                      Temperature (deg C)  =  31.000
                  Electrical balance (eq)  =  -9.833e-11
 Percent error, 100*(Cat-|An|)/(Cat+|An|)  =  -0.00
                               Iterations  =  16
                                  Total H  = 1.070739e+02
                                  Total O  = 5.359836e+01

----------------------------Distribution of species----------------------------

	                                           Log       Log         Log 
	Species            Molality    Activity  Molality  Activity     Gamma

	OH-               1.837e-07   1.510e-07    -6.736    -6.821    -0.085
	H+                1.197e-07   1.029e-07    -6.922    -6.988    -0.066
	H2O               5.551e+01   9.996e-01     1.744    -0.000     0.000
Ca               1.592e-02
	Ca+2              1.049e-02   5.154e-03    -1.979    -2.288    -0.308
	CaSO4             5.438e-03   5.491e-03    -2.265    -2.260     0.004
	CaOH+             1.001e-08   8.310e-09    -7.999    -8.080    -0.081
	CaHSO4+           4.317e-09   3.582e-09    -8.365    -8.446    -0.081
H(0)             3.915e-38
	H2                1.957e-38   1.976e-38   -37.708   -37.704     0.004
O(0)             1.671e-15
	O2                8.353e-16   8.434e-16   -15.078   -15.074     0.004
S(-2)            0.000e+00
	HS-               0.000e+00   0.000e+00  -114.532  -114.618    -0.085
	H2S               0.000e+00   0.000e+00  -114.742  -114.737     0.004
	S-2               0.000e+00   0.000e+00  -120.058  -120.373    -0.315
S(6)             1.592e-02
	SO4-2             1.048e-02   5.053e-03    -1.979    -2.296    -0.317
	CaSO4             5.438e-03   5.491e-03    -2.265    -2.260     0.004
	HSO4-             6.966e-08   5.780e-08    -7.157    -7.238    -0.081
	CaHSO4+           4.317e-09   3.582e-09    -8.365    -8.446    -0.081

------------------------------Saturation indices-------------------------------

	Phase               SI log IAP  log KT

	Anhydrite        -0.19   -4.58   -4.39  CaSO4
	Gypsum            0.00   -4.58   -4.58  CaSO4:2H2O
	H2(g)           -34.53  -37.70   -3.18  H2
	H2O(g)           -1.36   -0.00    1.36  H2O
	H2S(g)         -113.67 -114.74   -1.06  H2S
	O2(g)           -12.14  -15.07   -2.93  O2
	Sulfur          -84.95  -80.21    4.74  S

Reaction step 8.

Using solution 1.	Pure water
Using pure phase assemblage 1.	
Using temperature 1.	

-------------------------------Phase assemblage--------------------------------

                                                     Moles in assemblage
	Phase               SI log IAP  log KT    Initial      Final      Delta

	Anhydrite        -0.19   -4.59   -4.40  1.000e-00            -1.000e-00
	Gypsum            0.00   -4.59   -4.59  1.000e+00  1.985e+00  9.846e-01

-----------------------------Solution composition------------------------------

	Elements           Molality       Moles

	Ca                1.596e-02   1.539e-02
	S                 1.596e-02   1.539e-02

----------------------------Description of solution----------------------------

                                       pH  =   6.975      Charge balance
                                       pe  =  10.214      Adjusted to redox equilibrium
                        Activity of water  =   1.000
                           Ionic strength  =   4.194e-02
                       Mass of water (kg)  =   9.645e-01
                 Total alkalinity (eq/kg)  =   1.122e-10
                    Total carbon (mol/kg)  =   0.000e+00
                       Total CO2 (mol/kg)  =   0.000e+00
                      Temperature (deg C)  =  32.000
                  Electrical balance (eq)  =  -9.896e-11
 Percent error, 100*(Cat-|An|)/(Cat+|An|)  =  -0.00
                               Iterations  =  16
                                  Total H  = 1.070740e+02
                                  Total O  = 5.359858e+01

----------------------------Distribution of species----------------------------

	                                           Log       Log         Log 
	Species            Molality    Activity  Molality  Activity     Gamma

	OH-               1.916e-07   1.573e-07    -6.718    -6.803    -0.085
	H+                1.233e-07   1.060e-07    -6.909    -6.975    -0.066
	H2O               5.551e+01   9.996e-01     1.744    -0.000     0.000
Ca               1.596e-02
	Ca+2              1.049e-02   5.148e-03    -1.979    -2.288    -0.309
	CaSO4             5.474e-03   5.527e-03    -2.262    -2.258     0.004
	CaOH+             9.715e-09   8.059e-09    -8.013    -8.094    -0.081
	CaHSO4+           4.540e-09   3.766e-09    -8.343    -8.424    -0.081
H(0)             5.491e-38
	H2                2.746e-38   2.772e-38   -37.561   -37.557     0.004
O(0)             1.730e-15
	O2                8.649e-16   8.733e-16   -15.063   -15.059     0.004
S(-2)            0.000e+00
	HS-               0.000e+00   0.000e+00  -114.057  -114.142    -0.085
	H2S               0.000e+00   0.000e+00  -114.265  -114.261     0.004
	S-2               0.000e+00   0.000e+00  -119.566  -119.882    -0.316
S(6)             1.596e-02
	SO4-2             1.049e-02   5.047e-03    -1.979    -2.297    -0.318
	CaSO4             5.474e-03   5.527e-03    -2.262    -2.258     0.004
	HSO4-             7.334e-08   6.084e-08    -7.135    -7.216    -0.081
	CaHSO4+           4.540e-09   3.766e-09    -8.343    -8.424    -0.081

------------------------------Saturation indices-------------------------------

	Phase               SI log IAP  log KT

	Anhydrite        -0.19   -4.59   -4.40  CaSO4
	Gypsum            0.00   -4.59   -4.59  CaSO4:2H2O
	H2(g)           -34.38  -37.56   -3.18  H2
	H2O(g)           -1.33   -0.00    1.33  H2O
	H2S(g)         -113.19 -114.26   -1.07  H2S
	O2(g)           -12.12  -15.06   -2.94  O2
	Sulfur          -84.61  -79.88    4.72  S

Reaction step 9.

Using solution 1.	Pure water
Using pure phase assemblage 1.	
Using temperature 1.	

-------------------------------Phase assemblage--------------------------------

                                                     Moles in assemblage
	Phase               SI log IAP  log KT    Initial      Final      Delta

	Anhydrite        -0.18   -4.59   -4.40  1.000e-00            -1.000e-00
	Gypsum            0.00   -4.59   -4.59  1.000e+00  1.985e+00  9.846e-01

-----------------------------Solution composition------------------------------

	Elements           Molality       Moles

	Ca                1.599e-02   1.543e-02
	S                 1.599e-02   1.543e-02

----------------------------Description of solution----------------------------

                                       pH  =   6.962      Charge balance
                                       pe  =  10.145      Adjusted to redox equilibrium
                        Activity of water  =   1.000
                           Ionic strength  =   4.194e-02
                       Mass of water (kg)  =   9.645e-01
                 Total alkalinity (eq/kg)  =   1.122e-10
                    Total carbon (mol/kg)  =   0.000e+00
                       Total CO2 (mol/kg)  =   0.000e+00
                      Temperature (deg C)  =  33.000
                  Electrical balance (eq)  =  -9.966e-11
 Percent error, 100*(Cat-|An|)/(Cat+|An|)  =  -0.00
                               Iterations  =  16
                                  Total H  = 1.070741e+02
                                  Total O  = 5.359877e+01

----------------------------Distribution of species----------------------------

	                                           Log       Log         Log 
	Species            Molality    Activity  Molality  Activity     Gamma

	OH-               1.996e-07   1.639e-07    -6.700    -6.785    -0.086
	H+                1.270e-07   1.091e-07    -6.896    -6.962    -0.066
	H2O               5.551e+01   9.995e-01     1.744    -0.000     0.000
Ca               1.599e-02
	Ca+2              1.049e-02   5.142e-03    -1.979    -2.289    -0.309
	CaSO4             5.508e-03   5.562e-03    -2.259    -2.255     0.004
	CaOH+             9.427e-09   7.818e-09    -8.026    -8.107    -0.081
	CaHSO4+           4.772e-09   3.957e-09    -8.321    -8.403    -0.081
H(0)             7.928e-38
	H2                3.964e-38   4.003e-38   -37.402   -37.398     0.004
O(0)             1.683e-15
	O2                8.415e-16   8.497e-16   -15.075   -15.071     0.004
S(-2)            0.000e+00
	HS-               0.000e+00   0.000e+00  -113.531  -113.617    -0.086
	H2S               0.000e+00   0.000e+00  -113.738  -113.734     0.004
	S-2               0.000e+00   0.000e+00  -119.024  -119.341    -0.316
S(6)             1.599e-02
	SO4-2             1.048e-02   5.041e-03    -1.979    -2.297    -0.318
	CaSO4             5.508e-03   5.562e-03    -2.259    -2.255     0.004
	HSO4-             7.720e-08   6.402e-08    -7.112    -7.194    -0.081
	CaHSO4+           4.772e-09   3.957e-09    -8.321    -8.403    -0.081

------------------------------Saturation indices-------------------------------

	Phase               SI log IAP  log KT

	Anhydrite        -0.18   -4.59   -4.40  CaSO4
	Gypsum           -0.00   -4.59   -4.59  CaSO4:2H2O
	H2(g)           -34.21  -37.40   -3.18  H2
	H2O(g)           -1.31   -0.00    1.31  H2O
	H2S(g)         -112.65 -113.73   -1.08  H2S
	O2(g)           -12.13  -15.07   -2.95  O2
	Sulfur          -84.22  -79.52    4.70  S

Reaction step 10.

Using solution 1.	Pure water
Using pure phase assemblage 1.	
Using temperature 1.	

-------------------------------Phase assemblage--------------------------------

                                                     Moles in assemblage
	Phase               SI log IAP  log KT    Initial      Final      Delta

	Anhydrite        -0.18   -4.59   -4.41  1.000e-00            -1.000e-00
	Gypsum            0.00   -4.59   -4.59  1.000e+00  1.985e+00  9.845e-01

-----------------------------Solution composition------------------------------

	Elements           Molality       Moles

	Ca                1.602e-02   1.546e-02
	S                 1.602e-02   1.546e-02

----------------------------Description of solution----------------------------

                                       pH  =   6.950      Charge balance
                                       pe  =  10.079      Adjusted to redox equilibrium
                        Activity of water  =   1.000
                           Ionic strength  =   4.193e-02
                       Mass of water (kg)  =   9.645e-01
                 Total alkalinity (eq/kg)  =   1.122e-10
                    Total carbon (mol/kg)  =   0.000e+00
                       Total CO2 (mol/kg)  =   0.000e+00
                      Temperature (deg C)  =  34.000
                  Electrical balance (eq)  =  -1.005e-10
 Percent error, 100*(Cat-|An|)/(Cat+|An|)  =  -0.00
                               Iterations  =  16
                                  Total H  = 1.070743e+02
                                  Total O  = 5.359895e+01

----------------------------Distribution of species----------------------------

	                                           Log       Log         Log 
	Species            Molality    Activity  Molality  Activity     Gamma

	OH-               2.079e-07   1.707e-07    -6.682    -6.768    -0.086
	H+                1.307e-07   1.123e-07    -6.884    -6.950    -0.066
	H2O               5.551e+01   9.995e-01     1.744    -0.000     0.000
Ca               1.602e-02
	Ca+2              1.048e-02   5.134e-03    -1.980    -2.290    -0.310
	CaSO4             5.541e-03   5.595e-03    -2.256    -2.252     0.004
	CaOH+             9.149e-09   7.585e-09    -8.039    -8.120    -0.081
	CaHSO4+           5.015e-09   4.157e-09    -8.300    -8.381    -0.081
H(0)             1.129e-37
	H2                5.643e-38   5.698e-38   -37.248   -37.244     0.004
O(0)             1.677e-15
	O2                8.384e-16   8.465e-16   -15.077   -15.072     0.004
S(-2)            0.000e+00
	HS-               0.000e+00   0.000e+00  -113.029  -113.115    -0.086
	H2S               0.000e+00   0.000e+00  -113.234  -113.230     0.004
	S-2               0.000e+00   0.000e+00  -118.506  -118.823    -0.317
S(6)             1.602e-02
	SO4-2             1.048e-02   5.034e-03    -1.980    -2.298    -0.319
	CaSO4             5.541e-03   5.595e-03    -2.256    -2.252     0.004
	HSO4-             8.124e-08   6.734e-08    -7.090    -7.172    -0.081
	CaHSO4+           5.015e-09   4.157e-09    -8.300    -8.381    -0.081

------------------------------Saturation indices-------------------------------

	Phase               SI log IAP  log KT

	Anhydrite        -0.18   -4.59   -4.41  CaSO4
	Gypsum           -0.00   -4.59   -4.59  CaSO4:2H2O
	H2(g)           -34.06  -37.24   -3.19  H2
	H2O(g)           -1.28   -0.00    1.28  H2O
	H2S(g)         -112.14 -113.23   -1.10  H2S
	O2(g)           -12.12  -15.07   -2.95  O2
	Sulfur          -83.85  -79.17    4.68  S

Reaction step 11.

Using solution 1.	Pure water
Using pure phase assemblage 1.	
Using temperature 1.	

-------------------------------Phase assemblage--------------------------------

                                                     Moles in assemblage
	Phase               SI log IAP  log KT    Initial      Final      Delta

	Anhydrite        -0.17   -4.59   -4.42  1.000e-00            -1.000e-00
	Gypsum            0.00   -4.59   -4.59  1.000e+00  1.985e+00  9.845e-01

-----------------------------Solution composition------------------------------

	Elements           Molality       Moles

	Ca                1.605e-02   1.548e-02
	S                 1.605e-02   1.548e-02

----------------------------Description of solution----------------------------

                                       pH  =   6.937      Charge balance
                                       pe  =  10.014      Adjusted to redox equilibrium
                        Activity of water  =   1.000
                           Ionic strength  =   4.191e-02
                       Mass of water (kg)  =   9.645e-01
                 Total alkalinity (eq/kg)  =   1.122e-10
                    Total carbon (mol/kg)  =   0.000e+00
                       Total CO2 (mol/kg)  =   0.000e+00
                      Temperature (deg C)  =  35.000
                  Electrical balance (eq)  =  -1.037e-10
 Percent error, 100*(Cat-|An|)/(Cat+|An|)  =  -0.00
                               Iterations  =  19
                                  Total H  = 1.070744e+02
                                  Total O  = 5.359911e+01

----------------------------Distribution of species----------------------------

	                                           Log       Log         Log 
	Species            Molality    Activity  Molality  Activity     Gamma

	OH-               2.165e-07   1.776e-07    -6.665    -6.750    -0.086
	H+                1.345e-07   1.155e-07    -6.871    -6.937    -0.066
	H2O               5.551e+01   9.995e-01     1.744    -0.000     0.000
Ca               1.605e-02
	Ca+2              1.048e-02   5.126e-03    -1.980    -2.290    -0.310
	CaSO4             5.573e-03   5.627e-03    -2.254    -2.250     0.004
	CaOH+             8.881e-09   7.360e-09    -8.052    -8.133    -0.082
	CaHSO4+           5.267e-09   4.365e-09    -8.278    -8.360    -0.082
H(0)             1.596e-37
	H2                7.978e-38   8.055e-38   -37.098   -37.094     0.004
O(0)             1.686e-15
	O2                8.429e-16   8.510e-16   -15.074   -15.070     0.004
S(-2)            0.000e+00
	HS-               0.000e+00   0.000e+00  -112.538  -112.624    -0.086
	H2S               0.000e+00   0.000e+00  -112.742  -112.738     0.004
	S-2               0.000e+00   0.000e+00  -118.000  -118.317    -0.317
S(6)             1.605e-02
	SO4-2             1.048e-02   5.026e-03    -1.980    -2.299    -0.319
	CaSO4             5.573e-03   5.627e-03    -2.254    -2.250     0.004
	HSO4-             8.546e-08   7.082e-08    -7.068    -7.150    -0.082
	CaHSO4+           5.267e-09   4.365e-09    -8.278    -8.360    -0.082

------------------------------Saturation indices-------------------------------

	Phase               SI log IAP  log KT

	Anhydrite        -0.17   -4.59   -4.42  CaSO4
	Gypsum            0.00   -4.59   -4.59  CaSO4:2H2O
	H2(g)           -33.90  -37.09   -3.19  H2
	H2O(g)           -1.26   -0.00    1.26  H2O
	H2S(g)         -111.63 -112.74   -1.11  H2S
	O2(g)           -12.11  -15.07   -2.96  O2
	Sulfur          -83.49  -78.84    4.66  S

Reaction step 12.

Using solution 1.	Pure water
Using pure phase assemblage 1.	
Using temperature 1.	

-------------------------------Phase assemblage--------------------------------

                                                     Moles in assemblage
	Phase               SI log IAP  log KT    Initial      Final      Delta

	Anhydrite        -0.17   -4.59   -4.42  1.000e-00            -1.000e-00
	Gypsum            0.00   -4.59   -4.59  1.000e+00  1.984e+00  9.845e-01

-----------------------------Solution composition------------------------------

	Elements           Molality       Moles

	Ca                1.608e-02   1.551e-02
	S                 1.608e-02   1.551e-02

----------------------------Description of solution----------------------------

                                       pH  =   6.925      Charge balance
                                       pe  =   9.949      Adjusted to redox equilibrium
                        Activity of water  =   1.000
                           Ionic strength  =   4.189e-02
                       Mass of water (kg)  =   9.645e-01
                 Total alkalinity (eq/kg)  =   1.122e-10
                    Total carbon (mol/kg)  =   0.000e+00
                       Total CO2 (mol/kg)  =   0.000e+00
                      Temperature (deg C)  =  36.000
                  Electrical balance (eq)  =  -1.043e-10
 Percent error, 100*(Cat-|An|)/(Cat+|An|)  =  -0.00
                               Iterations  =  19
                                  Total H  = 1.070745e+02
                                  Total O  = 5.359925e+01

----------------------------Distribution of species----------------------------

	                                           Log       Log         Log 
	Species            Molality    Activity  Molality  Activity     Gamma

	OH-               2.253e-07   1.848e-07    -6.647    -6.733    -0.086
	H+                1.384e-07   1.189e-07    -6.859    -6.925    -0.066
	H2O               5.551e+01   9.995e-01     1.744    -0.000     0.000
Ca               1.608e-02
	Ca+2              1.047e-02   5.118e-03    -1.980    -2.291    -0.311
	CaSO4             5.603e-03   5.657e-03    -2.252    -2.247     0.004
	CaOH+             8.622e-09   7.143e-09    -8.064    -8.146    -0.082
	CaHSO4+           5.530e-09   4.582e-09    -8.257    -8.339    -0.082
H(0)             2.257e-37
	H2                1.129e-37   1.140e-37   -36.947   -36.943     0.004
O(0)             1.685e-15
	O2                8.426e-16   8.508e-16   -15.074   -15.070     0.004
S(-2)            0.000e+00
	HS-               0.000e+00   0.000e+00  -112.046  -112.132    -0.086
	H2S               0.000e+00   0.000e+00  -112.248  -112.244     0.004
	S-2               0.000e+00   0.000e+00  -117.491  -117.809    -0.318
S(6)             1.608e-02
	SO4-2             1.047e-02   5.018e-03    -1.980    -2.300    -0.320
	CaSO4             5.603e-03   5.657e-03    -2.252    -2.247     0.004
	HSO4-             8.988e-08   7.446e-08    -7.046    -7.128    -0.082
	CaHSO4+           5.530e-09   4.582e-09    -8.257    -8.339    -0.082

------------------------------Saturation indices-------------------------------

	Phase               SI log IAP  log KT

	Anhydrite        -0.17   -4.59   -4.42  CaSO4
	Gypsum            0.00   -4.59   -4.59  CaSO4:2H2O
	H2(g)           -33.75  -36.94   -3.20  H2
	H2O(g)           -1.24   -0.00    1.24  H2O
	H2S(g)         -111.13 -112.24   -1.12  H2S
	O2(g)           -12.11  -15.07   -2.96  O2
	Sulfur          -83.13  -78.50    4.63  S

Reaction step 13.

Using solution 1.	Pure water
Using pure phase assemblage 1.	
Using temperature 1.	

-------------------------------Phase assemblage--------------------------------

                                                     Moles in assemblage
	Phase               SI log IAP  log KT    Initial      Final      Delta

	Anhydrite        -0.16   -4.59   -4.43  1.000e-00            -1.000e-00
	Gypsum            0.00   -4.59   -4.59  1.000e+00  1.984e+00  9.845e-01

-----------------------------Solution composition------------------------------

	Elements           Molality       Moles

	Ca                1.610e-02   1.553e-02
	S                 1.610e-02   1.553e-02

----------------------------Description of solution----------------------------

                                       pH  =   6.913      Charge balance
                                       pe  =   9.884      Adjusted to redox equilibrium
                        Activity of water  =   1.000
                           Ionic strength  =   4.186e-02
                       Mass of water (kg)  =   9.645e-01
                 Total alkalinity (eq/kg)  =   1.122e-10
                    Total carbon (mol/kg)  =   0.000e+00
                       Total CO2 (mol/kg)  =   0.000e+00
                      Temperature (deg C)  =  37.000
                  Electrical balance (eq)  =  -1.082e-10
 Percent error, 100*(Cat-|An|)/(Cat+|An|)  =  -0.00
                               Iterations  =  23
                                  Total H  = 1.070745e+02
                                  Total O  = 5.359938e+01

----------------------------Distribution of species----------------------------

	                                           Log       Log         Log 
	Species            Molality    Activity  Molality  Activity     Gamma

	OH-               2.344e-07   1.922e-07    -6.630    -6.716    -0.086
	H+                1.423e-07   1.222e-07    -6.847    -6.913    -0.066
	H2O               5.551e+01   9.995e-01     1.744    -0.000     0.000
Ca               1.610e-02
	Ca+2              1.047e-02   5.109e-03    -1.980    -2.292    -0.311
	CaSO4             5.632e-03   5.686e-03    -2.249    -2.245     0.004
	CaOH+             8.373e-09   6.934e-09    -8.077    -8.159    -0.082
	CaHSO4+           5.804e-09   4.807e-09    -8.236    -8.318    -0.082
H(0)             3.184e-37
	H2                1.592e-37   1.608e-37   -36.798   -36.794     0.004
O(0)             1.686e-15
	O2                8.432e-16   8.514e-16   -15.074   -15.070     0.004
S(-2)            0.000e+00
	HS-               0.000e+00   0.000e+00  -111.558  -111.644    -0.086
	H2S               0.000e+00   0.000e+00  -111.758  -111.754     0.004
	S-2               0.000e+00   0.000e+00  -116.987  -117.306    -0.318
S(6)             1.610e-02
	SO4-2             1.047e-02   5.009e-03    -1.980    -2.300    -0.320
	CaSO4             5.632e-03   5.686e-03    -2.249    -2.245     0.004
	HSO4-             9.450e-08   7.827e-08    -7.025    -7.106    -0.082
	CaHSO4+           5.804e-09   4.807e-09    -8.236    -8.318    -0.082

------------------------------Saturation indices-------------------------------

	Phase               SI log IAP  log KT

	Anhydrite        -0.16   -4.59   -4.43  CaSO4
	Gypsum            0.00   -4.59   -4.59  CaSO4:2H2O
	H2(g)           -33.59  -36.79   -3.20  H2
	H2O(g)           -1.21   -0.00    1.21  H2O
	H2S(g)         -110.63 -111.75   -1.13  H2S
	O2(g)           -12.10  -15.07   -2.97  O2
	Sulfur          -82.77  -78.16    4.61  S

Reaction step 14.

Using solution 1.	Pure water
Using pure phase assemblage 1.	
Using temperature 1.	

-------------------------------Phase assemblage--------------------------------

                                                     Moles in assemblage
	Phase               SI log IAP  log KT    Initial      Final      Delta

	Anhydrite        -0.15   -4.59   -4.44  1.000e-00            -1.000e-00
	Gypsum           -0.00   -4.59   -4.59  1.000e+00  1.984e+00  9.845e-01

-----------------------------Solution composition------------------------------

	Elements           Molality       Moles

	Ca                1.612e-02   1.554e-02
	S                 1.612e-02   1.554e-02

----------------------------Description of solution----------------------------

                                       pH  =   6.901      Charge balance
                                       pe  =   9.818      Adjusted to redox equilibrium
                        Activity of water  =   1.000
                           Ionic strength  =   4.183e-02
                       Mass of water (kg)  =   9.645e-01
                 Total alkalinity (eq/kg)  =   1.122e-10
                    Total carbon (mol/kg)  =   0.000e+00
                       Total CO2 (mol/kg)  =   0.000e+00
                      Temperature (deg C)  =  38.000
                  Electrical balance (eq)  =  -1.063e-10
 Percent error, 100*(Cat-|An|)/(Cat+|An|)  =  -0.00
                               Iterations  =  17
                                  Total H  = 1.070746e+02
                                  Total O  = 5.359949e+01

----------------------------Distribution of species----------------------------

	                                           Log       Log         Log 
	Species            Molality    Activity  Molality  Activity     Gamma

	OH-               2.438e-07   1.999e-07    -6.613    -6.699    -0.086
	H+                1.464e-07   1.256e-07    -6.835    -6.901    -0.066
	H2O               5.551e+01   9.995e-01     1.744    -0.000     0.000
Ca               1.612e-02
	Ca+2              1.046e-02   5.099e-03    -1.981    -2.293    -0.312
	CaSO4             5.659e-03   5.714e-03    -2.247    -2.243     0.004
	CaOH+             8.132e-09   6.733e-09    -8.090    -8.172    -0.082
	CaHSO4+           6.089e-09   5.042e-09    -8.215    -8.297    -0.082
H(0)             4.512e-37
	H2                2.256e-37   2.278e-37   -36.647   -36.642     0.004
O(0)             1.665e-15
	O2                8.327e-16   8.407e-16   -15.080   -15.075     0.004
S(-2)            0.000e+00
	HS-               0.000e+00   0.000e+00  -111.061  -111.147    -0.086
	H2S               0.000e+00   0.000e+00  -111.260  -111.256     0.004
	S-2               0.000e+00   0.000e+00  -116.475  -116.794    -0.319
S(6)             1.612e-02
	SO4-2             1.046e-02   4.999e-03    -1.981    -2.301    -0.321
	CaSO4             5.659e-03   5.714e-03    -2.247    -2.243     0.004
	HSO4-             9.933e-08   8.224e-08    -7.003    -7.085    -0.082
	CaHSO4+           6.089e-09   5.042e-09    -8.215    -8.297    -0.082

------------------------------Saturation indices-------------------------------

	Phase               SI log IAP  log KT

	Anhydrite        -0.15   -4.59   -4.44  CaSO4
	Gypsum           -0.00   -4.59   -4.59  CaSO4:2H2O
	H2(g)           -33.44  -36.64   -3.20  H2
	H2O(g)           -1.19   -0.00    1.19  H2O
	H2S(g)         -110.12 -111.26   -1.14  H2S
	O2(g)           -12.10  -15.08   -2.97  O2
	Sulfur          -82.41  -77.82    4.59  S

Reaction step 15.

Using solution 1.	Pure water
Using pure phase assemblage 1.	
Using temperature 1.	

-------------------------------Phase assemblage--------------------------------

                                                     Moles in assemblage
	Phase               SI log IAP  log KT    Initial      Final      Delta

	Anhydrite        -0.15   -4.60   -4.45  1.000e-00            -1.000e-00
	Gypsum            0.00   -4.60   -4.60  1.000e+00  1.984e+00  9.844e-01

-----------------------------Solution composition------------------------------

	Elements           Molality       Moles

	Ca                1.613e-02   1.556e-02
	S                 1.613e-02   1.556e-02

----------------------------Description of solution----------------------------

                                       pH  =   6.889      Charge balance
                                       pe  =   9.755      Adjusted to redox equilibrium
                        Activity of water  =   1.000
                           Ionic strength  =   4.179e-02
                       Mass of water (kg)  =   9.645e-01
                 Total alkalinity (eq/kg)  =   1.122e-10
                    Total carbon (mol/kg)  =   0.000e+00
                       Total CO2 (mol/kg)  =   0.000e+00
                      Temperature (deg C)  =  39.000
                  Electrical balance (eq)  =  -1.061e-10
 Percent error, 100*(Cat-|An|)/(Cat+|An|)  =  -0.00
                               Iterations  =  17
                                  Total H  = 1.070747e+02
                                  Total O  = 5.359958e+01

----------------------------Distribution of species----------------------------

	                                           Log       Log         Log 
	Species            Molality    Activity  Molality  Activity     Gamma

	OH-               2.534e-07   2.077e-07    -6.596    -6.683    -0.086
	H+                1.504e-07   1.291e-07    -6.823    -6.889    -0.066
	H2O               5.551e+01   9.995e-01     1.744    -0.000     0.000
Ca               1.613e-02
	Ca+2              1.045e-02   5.089e-03    -1.981    -2.293    -0.312
	CaSO4             5.684e-03   5.739e-03    -2.245    -2.241     0.004
	CaOH+             7.899e-09   6.538e-09    -8.102    -8.185    -0.082
	CaHSO4+           6.386e-09   5.286e-09    -8.195    -8.277    -0.082
H(0)             6.319e-37
	H2                3.160e-37   3.190e-37   -36.500   -36.496     0.004
O(0)             1.676e-15
	O2                8.381e-16   8.462e-16   -15.077   -15.073     0.004
S(-2)            0.000e+00
	HS-               0.000e+00   0.000e+00  -110.584  -110.671    -0.086
	H2S               0.000e+00   0.000e+00  -110.782  -110.777     0.004
	S-2               0.000e+00   0.000e+00  -115.983  -116.302    -0.319
S(6)             1.613e-02
	SO4-2             1.045e-02   4.989e-03    -1.981    -2.302    -0.321
	CaSO4             5.684e-03   5.739e-03    -2.245    -2.241     0.004
	HSO4-             1.044e-07   8.640e-08    -6.981    -7.064    -0.082
	CaHSO4+           6.386e-09   5.286e-09    -8.195    -8.277    -0.082

------------------------------Saturation indices-------------------------------

	Phase               SI log IAP  log KT

	Anhydrite        -0.15   -4.60   -4.45  CaSO4
	Gypsum            0.00   -4.60   -4.60  CaSO4:2H2O
	H2(g)           -33.29  -36.50   -3.21  H2
	H2O(g)           -1.16   -0.00    1.16  H2O
	H2S(g)         -109.63 -110.78   -1.15  H2S
	O2(g)           -12.09  -15.07   -2.98  O2
	Sulfur          -82.06  -77.49    4.57  S

Reaction step 16.

Using solution 1.	Pure water
Using pure phase assemblage 1.	
Using temperature 1.	

-------------------------------Phase assemblage--------------------------------

                                                     Moles in assemblage
	Phase               SI log IAP  log KT    Initial      Final      Delta

	Anhydrite        -0.14   -4.60   -4.46  1.000e-00            -1.000e-00
	Gypsum            0.00   -4.60   -4.60  1.000e+00  1.984e+00  9.844e-01

-----------------------------Solution composition------------------------------

	Elements           Molality       Moles

	Ca                1.614e-02   1.557e-02
	S                 1.614e-02   1.557e-02

----------------------------Description of solution----------------------------

                                       pH  =   6.877      Charge balance
                                       pe  =   9.696      Adjusted to redox equilibrium
                        Activity of water  =   1.000
                           Ionic strength  =   4.174e-02
                       Mass of water (kg)  =   9.645e-01
                 Total alkalinity (eq/kg)  =   1.122e-10
                    Total carbon (mol/kg)  =   0.000e+00
                       Total CO2 (mol/kg)  =   0.000e+00
                      Temperature (deg C)  =  40.000
                  Electrical balance (eq)  =  -1.037e-10
 Percent error, 100*(Cat-|An|)/(Cat+|An|)  =  -0.00
                               Iterations  =  15
                                  Total H  = 1.070747e+02
                                  Total O  = 5.359965e+01

----------------------------Distribution of species----------------------------

	                                           Log       Log         Log 
	Species            Molality    Activity  Molality  Activity     Gamma

	OH-               2.634e-07   2.158e-07    -6.579    -6.666    -0.086
	H+                1.546e-07   1.326e-07    -6.811    -6.877    -0.067
	H2O               5.551e+01   9.995e-01     1.744    -0.000     0.000
Ca               1.614e-02
	Ca+2              1.044e-02   5.078e-03    -1.981    -2.294    -0.313
	CaSO4             5.708e-03   5.764e-03    -2.243    -2.239     0.004
	CaOH+             7.675e-09   6.351e-09    -8.115    -8.197    -0.082
	CaHSO4+           6.694e-09   5.539e-09    -8.174    -8.257    -0.082
H(0)             8.660e-37
	H2                4.330e-37   4.372e-37   -36.363   -36.359     0.004
O(0)             1.754e-15
	O2                8.771e-16   8.856e-16   -15.057   -15.053     0.004
S(-2)            0.000e+00
	HS-               0.000e+00   0.000e+00  -110.145  -110.231    -0.086
	H2S               0.000e+00   0.000e+00  -110.340  -110.336     0.004
	S-2               0.000e+00   0.000e+00  -115.527  -115.847    -0.320
S(6)             1.614e-02
	SO4-2             1.044e-02   4.979e-03    -1.981    -2.303    -0.321
	CaSO4             5.708e-03   5.764e-03    -2.243    -2.239     0.004
	HSO4-             1.097e-07   9.073e-08    -6.960    -7.042    -0.082
	CaHSO4+           6.694e-09   5.539e-09    -8.174    -8.257    -0.082

------------------------------Saturation indices-------------------------------

	Phase               SI log IAP  log KT

	Anhydrite        -0.14   -4.60   -4.46  CaSO4
	Gypsum            0.00   -4.60   -4.60  CaSO4:2H2O
	H2(g)           -33.15  -36.36   -3.21  H2
	H2O(g)           -1.14   -0.00    1.14  H2O
	H2S(g)         -109.18 -110.34   -1.16  H2S
	O2(g)           -12.07  -15.05   -2.98  O2
	Sulfur          -81.74  -77.19    4.55  S

Reaction step 17.

Using solution 1.	Pure water
Using pure phase assemblage 1.	
Using temperature 1.	

-------------------------------Phase assemblage--------------------------------

                                                     Moles in assemblage
	Phase               SI log IAP  log KT    Initial      Final      Delta

	Anhydrite        -0.13   -4.60   -4.47  1.000e-00            -1.000e-00
	Gypsum            0.00   -4.60   -4.60  1.000e+00  1.984e+00  9.844e-01

-----------------------------Solution composition------------------------------

	Elements           Molality       Moles

	Ca                1.615e-02   1.558e-02
	S                 1.615e-02   1.558e-02

----------------------------Description of solution----------------------------

                                       pH  =   6.866      Charge balance
                                       pe  =   9.628      Adjusted to redox equilibrium
                        Activity of water  =   1.000
                           Ionic strength  =   4.169e-02
                       Mass of water (kg)  =   9.645e-01
                 Total alkalinity (eq/kg)  =   1.122e-10
                    Total carbon (mol/kg)  =   0.000e+00
                       Total CO2 (mol/kg)  =   0.000e+00
                      Temperature (deg C)  =  41.000
                  Electrical balance (eq)  =  -1.043e-10
 Percent error, 100*(Cat-|An|)/(Cat+|An|)  =  -0.00
                               Iterations  =  15
                                  Total H  = 1.070748e+02
                                  Total O  = 5.359970e+01

----------------------------Distribution of species----------------------------

	                                           Log       Log         Log 
	Species            Molality    Activity  Molality  Activity     Gamma

	OH-               2.736e-07   2.241e-07    -6.563    -6.649    -0.087
	H+                1.588e-07   1.362e-07    -6.799    -6.866    -0.067
	H2O               5.551e+01   9.995e-01     1.744    -0.000     0.000
Ca               1.615e-02
	Ca+2              1.042e-02   5.066e-03    -1.982    -2.295    -0.313
	CaSO4             5.731e-03   5.786e-03    -2.242    -2.238     0.004
	CaOH+             7.458e-09   6.170e-09    -8.127    -8.210    -0.082
	CaHSO4+           7.014e-09   5.802e-09    -8.154    -8.236    -0.082
H(0)             1.243e-36
	H2                6.213e-37   6.272e-37   -36.207   -36.203     0.004
O(0)             1.668e-15
	O2                8.340e-16   8.421e-16   -15.079   -15.075     0.004
S(-2)            0.000e+00
	HS-               0.000e+00   0.000e+00  -109.625  -109.712    -0.087
	H2S               0.000e+00   0.000e+00  -109.818  -109.814     0.004
	S-2               0.000e+00   0.000e+00  -114.992  -115.312    -0.320
S(6)             1.615e-02
	SO4-2             1.042e-02   4.967e-03    -1.982    -2.304    -0.322
	CaSO4             5.731e-03   5.786e-03    -2.242    -2.238     0.004
	HSO4-             1.152e-07   9.526e-08    -6.939    -7.021    -0.082
	CaHSO4+           7.014e-09   5.802e-09    -8.154    -8.236    -0.082

------------------------------Saturation indices-------------------------------

	Phase               SI log IAP  log KT

	Anhydrite        -0.13   -4.60   -4.47  CaSO4
	Gypsum            0.00   -4.60   -4.60  CaSO4:2H2O
	H2(g)           -32.99  -36.20   -3.22  H2
	H2O(g)           -1.12   -0.00    1.12  H2O
	H2S(g)         -108.65 -109.81   -1.17  H2S
	O2(g)           -12.09  -15.07   -2.99  O2
	Sulfur          -81.35  -76.83    4.53  S

Reaction step 18.

Using solution 1.	Pure water
Using pure phase assemblage 1.	
Using temperature 1.	

-------------------------------Phase assemblage--------------------------------

                                                     Moles in assemblage
	Phase               SI log IAP  log KT    Initial      Final      Delta

	Anhydrite        -0.13   -4.60   -4.47  1.000e-00            -1.000e-00
	Gypsum           -0.00   -4.60   -4.60  1.000e+00  1.984e+00  9.844e-01

-----------------------------Solution composition------------------------------

	Elements           Molality       Moles

	Ca                1.616e-02   1.559e-02
	S                 1.616e-02   1.559e-02

----------------------------Description of solution----------------------------

                                       pH  =   6.854      Charge balance
                                       pe  =   9.566      Adjusted to redox equilibrium
                        Activity of water  =   1.000
                           Ionic strength  =   4.164e-02
                       Mass of water (kg)  =   9.645e-01
                 Total alkalinity (eq/kg)  =   1.122e-10
                    Total carbon (mol/kg)  =   0.000e+00
                       Total CO2 (mol/kg)  =   0.000e+00
                      Temperature (deg C)  =  42.000
                  Electrical balance (eq)  =  -1.049e-10
 Percent error, 100*(Cat-|An|)/(Cat+|An|)  =  -0.00
                               Iterations  =  15
                                  Total H  = 1.070748e+02
                                  Total O  = 5.359974e+01

----------------------------Distribution of species----------------------------

	                                           Log       Log         Log 
	Species            Molality    Activity  Molality  Activity     Gamma

	OH-               2.842e-07   2.327e-07    -6.546    -6.633    -0.087
	H+                1.631e-07   1.398e-07    -6.788    -6.854    -0.067
	H2O               5.551e+01   9.995e-01     1.744    -0.000     0.000
Ca               1.616e-02
	Ca+2              1.041e-02   5.054e-03    -1.983    -2.296    -0.314
	CaSO4             5.752e-03   5.808e-03    -2.240    -2.236     0.004
	CaHSO4+           7.346e-09   6.075e-09    -8.134    -8.216    -0.082
	CaOH+             7.249e-09   5.995e-09    -8.140    -8.222    -0.082
H(0)             1.725e-36
	H2                8.627e-37   8.710e-37   -36.064   -36.060     0.004
O(0)             1.686e-15
	O2                8.428e-16   8.510e-16   -15.074   -15.070     0.004
S(-2)            0.000e+00
	HS-               0.000e+00   0.000e+00  -109.161  -109.248    -0.087
	H2S               0.000e+00   0.000e+00  -109.352  -109.348     0.004
	S-2               0.000e+00   0.000e+00  -114.513  -114.833    -0.321
S(6)             1.616e-02
	SO4-2             1.041e-02   4.956e-03    -1.983    -2.305    -0.322
	CaSO4             5.752e-03   5.808e-03    -2.240    -2.236     0.004
	HSO4-             1.209e-07   9.998e-08    -6.918    -7.000    -0.082
	CaHSO4+           7.346e-09   6.075e-09    -8.134    -8.216    -0.082

------------------------------Saturation indices-------------------------------

	Phase               SI log IAP  log KT

	Anhydrite        -0.13   -4.60   -4.47  CaSO4
	Gypsum            0.00   -4.60   -4.60  CaSO4:2H2O
	H2(g)           -32.84  -36.06   -3.22  H2
	H2O(g)           -1.09   -0.00    1.09  H2O
	H2S(g)         -108.17 -109.35   -1.18  H2S
	O2(g)           -12.08  -15.07   -2.99  O2
	Sulfur          -81.01  -76.51    4.51  S

Reaction step 19.

Using solution 1.	Pure water
Using pure phase assemblage 1.	
Using temperature 1.	

-------------------------------Phase assemblage--------------------------------

                                                     Moles in assemblage
	Phase               SI log IAP  log KT    Initial      Final      Delta

	Anhydrite        -0.12   -4.60   -4.48  1.000e-00            -1.000e-00
	Gypsum           -0.00   -4.60   -4.60  1.000e+00  1.984e+00  9.844e-01

-----------------------------Solution composition------------------------------

	Elements           Molality       Moles

	Ca                1.616e-02   1.559e-02
	S                 1.616e-02   1.559e-02

----------------------------Description of solution----------------------------

                                       pH  =   6.843      Charge balance
                                       pe  =   9.503      Adjusted to redox equilibrium
                        Activity of water  =   1.000
                           Ionic strength  =   4.157e-02
                       Mass of water (kg)  =   9.645e-01
                 Total alkalinity (eq/kg)  =   1.122e-10
                    Total carbon (mol/kg)  =   0.000e+00
                       Total CO2 (mol/kg)  =   0.000e+00
                      Temperature (deg C)  =  43.000
                  Electrical balance (eq)  =  -1.082e-10
 Percent error, 100*(Cat-|An|)/(Cat+|An|)  =  -0.00
                               Iterations  =  18
                                  Total H  = 1.070748e+02
                                  Total O  = 5.359977e+01

----------------------------Distribution of species----------------------------

	                                           Log       Log         Log 
	Species            Molality    Activity  Molality  Activity     Gamma

	OH-               2.950e-07   2.416e-07    -6.530    -6.617    -0.087
	H+                1.674e-07   1.435e-07    -6.776    -6.843    -0.067
	H2O               5.551e+01   9.995e-01     1.744    -0.000     0.000
Ca               1.616e-02
	Ca+2              1.039e-02   5.042e-03    -1.983    -2.297    -0.314
	CaSO4             5.772e-03   5.827e-03    -2.239    -2.235     0.004
	CaHSO4+           7.691e-09   6.359e-09    -8.114    -8.197    -0.083
	CaOH+             7.048e-09   5.827e-09    -8.152    -8.235    -0.083
H(0)             2.409e-36
	H2                1.205e-36   1.216e-36   -35.919   -35.915     0.004
O(0)             1.678e-15
	O2                8.390e-16   8.471e-16   -15.076   -15.072     0.004
S(-2)            0.000e+00
	HS-               0.000e+00   0.000e+00  -108.688  -108.774    -0.087
	H2S               0.000e+00   0.000e+00  -108.877  -108.873     0.004
	S-2               0.000e+00   0.000e+00  -114.023  -114.344    -0.321
S(6)             1.616e-02
	SO4-2             1.039e-02   4.944e-03    -1.983    -2.306    -0.323
	CaSO4             5.772e-03   5.827e-03    -2.239    -2.235     0.004
	HSO4-             1.269e-07   1.049e-07    -6.897    -6.979    -0.083
	CaHSO4+           7.691e-09   6.359e-09    -8.114    -8.197    -0.083

------------------------------Saturation indices-------------------------------

	Phase               SI log IAP  log KT

	Anhydrite        -0.12   -4.60   -4.48  CaSO4
	Gypsum           -0.00   -4.60   -4.60  CaSO4:2H2O
	H2(g)           -32.69  -35.92   -3.22  H2
	H2O(g)           -1.07   -0.00    1.07  H2O
	H2S(g)         -107.68 -108.87   -1.19  H2S
	O2(g)           -12.07  -15.07   -3.00  O2
	Sulfur          -80.67  -76.18    4.49  S

Reaction step 20.

Using solution 1.	Pure water
Using pure phase assemblage 1.	
Using temperature 1.	

-------------------------------Phase assemblage--------------------------------

                                                     Moles in assemblage
	Phase               SI log IAP  log KT    Initial      Final      Delta

	Anhydrite        -0.11   -4.61   -4.49  1.000e-00            -1.000e-00
	Gypsum            0.00   -4.61   -4.61  1.000e+00  1.984e+00  9.844e-01

-----------------------------Solution composition------------------------------

	Elements           Molality       Moles

	Ca                1.617e-02   1.559e-02
	S                 1.617e-02   1.559e-02

----------------------------Description of solution----------------------------

                                       pH  =   6.832      Charge balance
                                       pe  =   9.442      Adjusted to redox equilibrium
                        Activity of water  =   1.000
                           Ionic strength  =   4.150e-02
                       Mass of water (kg)  =   9.645e-01
                 Total alkalinity (eq/kg)  =   1.122e-10
                    Total carbon (mol/kg)  =   0.000e+00
                       Total CO2 (mol/kg)  =   0.000e+00
                      Temperature (deg C)  =  44.000
                  Electrical balance (eq)  =  -1.062e-10
 Percent error, 100*(Cat-|An|)/(Cat+|An|)  =  -0.00
                               Iterations  =  15
                                  Total H  = 1.070748e+02
                                  Total O  = 5.359977e+01

----------------------------Distribution of species----------------------------

	                                           Log       Log         Log 
	Species            Molality    Activity  Molality  Activity     Gamma

	OH-               3.062e-07   2.506e-07    -6.514    -6.601    -0.087
	H+                1.718e-07   1.473e-07    -6.765    -6.832    -0.067
	H2O               5.551e+01   9.995e-01     1.744    -0.000     0.000
Ca               1.617e-02
	Ca+2              1.038e-02   5.028e-03    -1.984    -2.299    -0.315
	CaSO4             5.790e-03   5.845e-03    -2.237    -2.233     0.004
	CaHSO4+           8.049e-09   6.653e-09    -8.094    -8.177    -0.083
	CaOH+             6.853e-09   5.665e-09    -8.164    -8.247    -0.083
H(0)             3.328e-36
	H2                1.664e-36   1.680e-36   -35.779   -35.775     0.004
O(0)             1.699e-15
	O2                8.496e-16   8.577e-16   -15.071   -15.067     0.004
S(-2)            0.000e+00
	HS-               0.000e+00   0.000e+00  -108.232  -108.319    -0.087
	H2S               0.000e+00   0.000e+00  -108.419  -108.415     0.004
	S-2               0.000e+00   0.000e+00  -113.552  -113.874    -0.321
S(6)             1.617e-02
	SO4-2             1.038e-02   4.931e-03    -1.984    -2.307    -0.323
	CaSO4             5.790e-03   5.845e-03    -2.237    -2.233     0.004
	HSO4-             1.331e-07   1.100e-07    -6.876    -6.958    -0.083
	CaHSO4+           8.049e-09   6.653e-09    -8.094    -8.177    -0.083

------------------------------Saturation indices-------------------------------

	Phase               SI log IAP  log KT

	Anhydrite        -0.11   -4.61   -4.49  CaSO4
	Gypsum            0.00   -4.61   -4.61  CaSO4:2H2O
	H2(g)           -32.55  -35.77   -3.23  H2
	H2O(g)           -1.05   -0.00    1.05  H2O
	H2S(g)         -107.22 -108.41   -1.20  H2S
	O2(g)           -12.06  -15.07   -3.00  O2
	Sulfur          -80.33  -75.87    4.46  S

Reaction step 21.

Using solution 1.	Pure water
Using pure phase assemblage 1.	
Using temperature 1.	

-------------------------------Phase assemblage--------------------------------

                                                     Moles in assemblage
	Phase               SI log IAP  log KT    Initial      Final      Delta

	Anhydrite        -0.11   -4.61   -4.50  1.000e-00            -1.000e-00
	Gypsum           -0.00   -4.61   -4.61  1.000e+00  1.984e+00  9.844e-01

-----------------------------Solution composition------------------------------

	Elements           Molality       Moles

	Ca                1.616e-02   1.559e-02
	S                 1.616e-02   1.559e-02

----------------------------Description of solution----------------------------

                                       pH  =   6.821      Charge balance
                                       pe  =   9.383      Adjusted to redox equilibrium
                        Activity of water  =   1.000
                           Ionic strength  =   4.143e-02
                       Mass of water (kg)  =   9.645e-01
                 Total alkalinity (eq/kg)  =   1.122e-10
                    Total carbon (mol/kg)  =   0.000e+00
                       Total CO2 (mol/kg)  =   0.000e+00
                      Temperature (deg C)  =  45.000
                  Electrical balance (eq)  =  -1.082e-10
 Percent error, 100*(Cat-|An|)/(Cat+|An|)  =  -0.00
                               Iterations  =  18
                                  Total H  = 1.070748e+02
                                  Total O  = 5.359976e+01

----------------------------Distribution of species----------------------------

	                                           Log       Log         Log 
	Species            Molality    Activity  Molality  Activity     Gamma

	OH-               3.177e-07   2.600e-07    -6.498    -6.585    -0.087
	H+                1.762e-07   1.510e-07    -6.754    -6.821    -0.067
	H2O               5.551e+01   9.995e-01     1.744    -0.000     0.000
Ca               1.616e-02
	Ca+2              1.036e-02   5.015e-03    -1.985    -2.300    -0.315
	CaSO4             5.806e-03   5.862e-03    -2.236    -2.232     0.004
	CaHSO4+           8.419e-09   6.957e-09    -8.075    -8.158    -0.083
	CaOH+             6.666e-09   5.508e-09    -8.176    -8.259    -0.083
H(0)             4.546e-36
	H2                2.273e-36   2.295e-36   -35.643   -35.639     0.004
O(0)             1.753e-15
	O2                8.766e-16   8.850e-16   -15.057   -15.053     0.004
S(-2)            0.000e+00
	HS-               0.000e+00   0.000e+00  -107.795  -107.883    -0.087
	H2S               0.000e+00   0.000e+00  -107.980  -107.976     0.004
	S-2               0.000e+00   0.000e+00  -113.100  -113.422    -0.322
S(6)             1.616e-02
	SO4-2             1.036e-02   4.918e-03    -1.985    -2.308    -0.323
	CaSO4             5.806e-03   5.862e-03    -2.236    -2.232     0.004
	HSO4-             1.396e-07   1.154e-07    -6.855    -6.938    -0.083
	CaHSO4+           8.419e-09   6.957e-09    -8.075    -8.158    -0.083

------------------------------Saturation indices-------------------------------

	Phase               SI log IAP  log KT

	Anhydrite        -0.11   -4.61   -4.50  CaSO4
	Gypsum           -0.00   -4.61   -4.61  CaSO4:2H2O
	H2(g)           -32.41  -35.64   -3.23  H2
	H2O(g)           -1.03   -0.00    1.03  H2O
	H2S(g)         -106.77 -107.98   -1.21  H2S
	O2(g)           -12.04  -15.05   -3.01  O2
	Sulfur          -80.01  -75.57    4.44  S

Reaction step 22.

Using solution 1.	Pure water
Using pure phase assemblage 1.	
Using temperature 1.	

-------------------------------Phase assemblage--------------------------------

                                                     Moles in assemblage
	Phase               SI log IAP  log KT    Initial      Final      Delta

	Anhydrite        -0.10   -4.61   -4.51  1.000e-00            -1.000e-00
	Gypsum           -0.00   -4.61   -4.61  1.000e+00  1.984e+00  9.844e-01

-----------------------------Solution composition------------------------------

	Elements           Molality       Moles

	Ca                1.616e-02   1.559e-02
	S                 1.616e-02   1.559e-02

----------------------------Description of solution----------------------------

                                       pH  =   6.810      Charge balance
                                       pe  =   9.317      Adjusted to redox equilibrium
                        Activity of water  =   1.000
                           Ionic strength  =   4.135e-02
                       Mass of water (kg)  =   9.645e-01
                 Total alkalinity (eq/kg)  =   1.122e-10
                    Total carbon (mol/kg)  =   0.000e+00
                       Total CO2 (mol/kg)  =   0.000e+00
                      Temperature (deg C)  =  46.000
                  Electrical balance (eq)  =  -1.073e-10
 Percent error, 100*(Cat-|An|)/(Cat+|An|)  =  -0.00
                               Iterations  =  15
                                  Total H  = 1.070748e+02
                                  Total O  = 5.359973e+01

----------------------------Distribution of species----------------------------

	                                           Log       Log         Log 
	Species            Molality    Activity  Molality  Activity     Gamma

	OH-               3.296e-07   2.696e-07    -6.482    -6.569    -0.087
	H+                1.807e-07   1.549e-07    -6.743    -6.810    -0.067
	H2O               5.551e+01   9.995e-01     1.744    -0.000     0.000
Ca               1.616e-02
	Ca+2              1.034e-02   5.001e-03    -1.986    -2.301    -0.315
	CaSO4             5.821e-03   5.877e-03    -2.235    -2.231     0.004
	CaHSO4+           8.804e-09   7.273e-09    -8.055    -8.138    -0.083
	CaOH+             6.484e-09   5.357e-09    -8.188    -8.271    -0.083
H(0)             6.412e-36
	H2                3.206e-36   3.236e-36   -35.494   -35.490     0.004
O(0)             1.689e-15
	O2                8.445e-16   8.526e-16   -15.073   -15.069     0.004
S(-2)            0.000e+00
	HS-               0.000e+00   0.000e+00  -107.303  -107.390    -0.087
	H2S               0.000e+00   0.000e+00  -107.485  -107.481     0.004
[...]
                               Iterations  =  14
                                  Total H  = 1.150124e+02
                                  Total O  = 5.755730e+01

----------------------------Distribution of species----------------------------

	                                           Log       Log         Log 
	Species            Molality    Activity  Molality  Activity     Gamma

	OH-               6.989e-07   5.785e-07    -6.156    -6.238    -0.082
	H+                3.091e-07   2.664e-07    -6.510    -6.574    -0.065
	H2O               5.551e+01   9.997e-01     1.744    -0.000     0.000
Ca               1.233e-02
	Ca+2              7.916e-03   3.961e-03    -2.101    -2.402    -0.301
	CaSO4             4.411e-03   4.444e-03    -2.355    -2.352     0.003
	CaHSO4+           1.785e-08   1.488e-08    -7.748    -7.827    -0.079
	CaOH+             2.959e-09   2.467e-09    -8.529    -8.608    -0.079
H(0)             9.307e-33
	H2                4.654e-33   4.688e-33   -32.332   -32.329     0.003
O(0)             1.562e-15
	O2                7.812e-16   7.869e-16   -15.107   -15.104     0.003
S(-2)            0.000e+00
	HS-               0.000e+00   0.000e+00   -97.071   -97.153    -0.082
	H2S               0.000e+00   0.000e+00   -97.158   -97.155     0.003
	S-2               0.000e+00   0.000e+00  -102.028  -102.334    -0.306
S(6)             1.233e-02
	SO4-2             7.916e-03   3.902e-03    -2.102    -2.409    -0.307
	CaSO4             4.411e-03   4.444e-03    -2.355    -2.352     0.003
	HSO4-             3.748e-07   3.125e-07    -6.426    -6.505    -0.079
	CaHSO4+           1.785e-08   1.488e-08    -7.748    -7.827    -0.079

------------------------------Saturation indices-------------------------------

	Phase               SI log IAP  log KT

	Anhydrite        -0.00   -4.81   -4.81  CaSO4
	Gypsum           -0.12   -4.81   -4.69  CaSO4:2H2O
	H2(g)           -29.01  -32.33   -3.32  H2
	H2O(g)           -0.50   -0.00    0.50  H2O
	H2S(g)          -95.72  -97.15   -1.44  H2S
	O2(g)           -12.01  -15.10   -3.09  O2
	Sulfur          -72.11  -68.14    3.97  S

Reaction step 47.

Using solution 1.	Pure water
Using pure phase assemblage 1.	
Using temperature 1.	

-------------------------------Phase assemblage--------------------------------

                                                     Moles in assemblage
	Phase               SI log IAP  log KT    Initial      Final      Delta

	Anhydrite         0.00   -4.83   -4.83  1.000e-00  1.988e+00  9.875e-01
	Gypsum           -0.13   -4.83   -4.70  1.000e+00            -1.000e+00

-----------------------------Solution composition------------------------------

	Elements           Molality       Moles

	Ca                1.204e-02   1.248e-02
	S                 1.204e-02   1.248e-02

----------------------------Description of solution----------------------------

                                       pH  =   6.565      Charge balance
                                       pe  =   7.878      Adjusted to redox equilibrium
                        Activity of water  =   1.000
                           Ionic strength  =   3.100e-02
                       Mass of water (kg)  =   1.036e+00
                 Total alkalinity (eq/kg)  =   1.044e-10
                    Total carbon (mol/kg)  =   0.000e+00
                       Total CO2 (mol/kg)  =   0.000e+00
                      Temperature (deg C)  =  71.000
                  Electrical balance (eq)  =  -1.058e-10
 Percent error, 100*(Cat-|An|)/(Cat+|An|)  =  -0.00
                               Iterations  =  14
                                  Total H  = 1.150124e+02
                                  Total O  = 5.755613e+01

----------------------------Distribution of species----------------------------

	                                           Log       Log         Log 
	Species            Molality    Activity  Molality  Activity     Gamma

	OH-               7.173e-07   5.944e-07    -6.144    -6.226    -0.082
	H+                3.154e-07   2.720e-07    -6.501    -6.565    -0.064
	H2O               5.551e+01   9.997e-01     1.744    -0.000     0.000
Ca               1.204e-02
	Ca+2              7.750e-03   3.893e-03    -2.111    -2.410    -0.299
	CaSO4             4.294e-03   4.325e-03    -2.367    -2.364     0.003
	CaHSO4+           1.809e-08   1.510e-08    -7.742    -7.821    -0.079
	CaOH+             2.846e-09   2.375e-09    -8.546    -8.624    -0.079
H(0)             1.230e-32
	H2                6.148e-33   6.192e-33   -32.211   -32.208     0.003
O(0)             1.567e-15
	O2                7.834e-16   7.890e-16   -15.106   -15.103     0.003
S(-2)            0.000e+00
	HS-               0.000e+00   0.000e+00   -96.685   -96.766    -0.082
	H2S               0.000e+00   0.000e+00   -96.765   -96.762     0.003
	S-2               0.000e+00   0.000e+00  -101.629  -101.933    -0.304
S(6)             1.204e-02
	SO4-2             7.750e-03   3.837e-03    -2.111    -2.416    -0.305
	CaSO4             4.294e-03   4.325e-03    -2.367    -2.364     0.003
	HSO4-             3.865e-07   3.225e-07    -6.413    -6.491    -0.079
	CaHSO4+           1.809e-08   1.510e-08    -7.742    -7.821    -0.079

------------------------------Saturation indices-------------------------------

	Phase               SI log IAP  log KT

	Anhydrite        -0.00   -4.83   -4.83  CaSO4
	Gypsum           -0.13   -4.83   -4.70  CaSO4:2H2O
	H2(g)           -28.89  -32.21   -3.32  H2
	H2O(g)           -0.48   -0.00    0.48  H2O
	H2S(g)          -95.32  -96.76   -1.44  H2S
	O2(g)           -12.01  -15.10   -3.09  O2
	Sulfur          -71.83  -67.88    3.95  S

Reaction step 48.

Using solution 1.	Pure water
Using pure phase assemblage 1.	
Using temperature 1.	

-------------------------------Phase assemblage--------------------------------

                                                     Moles in assemblage
	Phase               SI log IAP  log KT    Initial      Final      Delta

	Anhydrite         0.00   -4.84   -4.84  1.000e-00  1.988e+00  9.878e-01
	Gypsum           -0.14   -4.84   -4.70  1.000e+00            -1.000e+00

-----------------------------Solution composition------------------------------

	Elements           Molality       Moles

	Ca                1.176e-02   1.219e-02
	S                 1.176e-02   1.219e-02

----------------------------Description of solution----------------------------

                                       pH  =   6.556      Charge balance
                                       pe  =   7.824      Adjusted to redox equilibrium
                        Activity of water  =   1.000
                           Ionic strength  =   3.034e-02
                       Mass of water (kg)  =   1.036e+00
                 Total alkalinity (eq/kg)  =   1.044e-10
                    Total carbon (mol/kg)  =   0.000e+00
                       Total CO2 (mol/kg)  =   0.000e+00
                      Temperature (deg C)  =  72.000
                  Electrical balance (eq)  =  -1.056e-10
 Percent error, 100*(Cat-|An|)/(Cat+|An|)  =  -0.00
                               Iterations  =  14
                                  Total H  = 1.150124e+02
                                  Total O  = 5.755497e+01

----------------------------Distribution of species----------------------------

	                                           Log       Log         Log 
	Species            Molality    Activity  Molality  Activity     Gamma

	OH-               7.359e-07   6.106e-07    -6.133    -6.214    -0.081
	H+                3.218e-07   2.777e-07    -6.492    -6.556    -0.064
	H2O               5.551e+01   9.997e-01     1.744    -0.000     0.000
Ca               1.176e-02
	Ca+2              7.586e-03   3.826e-03    -2.120    -2.417    -0.297
	CaSO4             4.178e-03   4.207e-03    -2.379    -2.376     0.003
	CaHSO4+           1.833e-08   1.531e-08    -7.737    -7.815    -0.078
	CaOH+             2.736e-09   2.286e-09    -8.563    -8.641    -0.078
H(0)             1.628e-32
	H2                8.139e-33   8.196e-33   -32.089   -32.086     0.003
O(0)             1.560e-15
	O2                7.800e-16   7.855e-16   -15.108   -15.105     0.003
S(-2)            0.000e+00
	HS-               0.000e+00   0.000e+00   -96.294   -96.375    -0.081
	H2S               0.000e+00   0.000e+00   -96.369   -96.366     0.003
	S-2               0.000e+00   0.000e+00  -101.227  -101.529    -0.302
S(6)             1.176e-02
	SO4-2             7.585e-03   3.772e-03    -2.120    -2.423    -0.303
	CaSO4             4.178e-03   4.207e-03    -2.379    -2.376     0.003
	HSO4-             3.984e-07   3.328e-07    -6.400    -6.478    -0.078
	CaHSO4+           1.833e-08   1.531e-08    -7.737    -7.815    -0.078

------------------------------Saturation indices-------------------------------

	Phase               SI log IAP  log KT

	Anhydrite        -0.00   -4.84   -4.84  CaSO4
	Gypsum           -0.14   -4.84   -4.70  CaSO4:2H2O
	H2(g)           -28.76  -32.09   -3.33  H2
	H2O(g)           -0.46   -0.00    0.46  H2O
	H2S(g)          -94.91  -96.37   -1.45  H2S
	O2(g)           -12.01  -15.10   -3.09  O2
	Sulfur          -71.54  -67.61    3.93  S

Reaction step 49.

Using solution 1.	Pure water
Using pure phase assemblage 1.	
Using temperature 1.	

-------------------------------Phase assemblage--------------------------------

                                                     Moles in assemblage
	Phase               SI log IAP  log KT    Initial      Final      Delta

	Anhydrite         0.00   -4.86   -4.86  1.000e-00  1.988e+00  9.881e-01
	Gypsum           -0.15   -4.86   -4.71  1.000e+00            -1.000e+00

-----------------------------Solution composition------------------------------

	Elements           Molality       Moles

	Ca                1.149e-02   1.190e-02
	S                 1.149e-02   1.190e-02

----------------------------Description of solution----------------------------

                                       pH  =   6.547      Charge balance
                                       pe  =   7.769      Adjusted to redox equilibrium
                        Activity of water  =   1.000
                           Ionic strength  =   2.969e-02
                       Mass of water (kg)  =   1.036e+00
                 Total alkalinity (eq/kg)  =   1.044e-10
                    Total carbon (mol/kg)  =   0.000e+00
                       Total CO2 (mol/kg)  =   0.000e+00
                      Temperature (deg C)  =  73.000
                  Electrical balance (eq)  =  -1.082e-10
 Percent error, 100*(Cat-|An|)/(Cat+|An|)  =  -0.00
                               Iterations  =  17
                                  Total H  = 1.150124e+02
                                  Total O  = 5.755382e+01

----------------------------Distribution of species----------------------------

	                                           Log       Log         Log 
	Species            Molality    Activity  Molality  Activity     Gamma

	OH-               7.548e-07   6.271e-07    -6.122    -6.203    -0.081
	H+                3.282e-07   2.835e-07    -6.484    -6.547    -0.064
	H2O               5.551e+01   9.997e-01     1.744    -0.000     0.000
Ca               1.149e-02
	Ca+2              7.423e-03   3.759e-03    -2.129    -2.425    -0.295
	CaSO4             4.063e-03   4.091e-03    -2.391    -2.388     0.003
	CaHSO4+           1.856e-08   1.552e-08    -7.731    -7.809    -0.078
	CaOH+             2.631e-09   2.200e-09    -8.580    -8.658    -0.078
H(0)             2.169e-32
	H2                1.084e-32   1.092e-32   -31.965   -31.962     0.003
O(0)             1.528e-15
	O2                7.641e-16   7.693e-16   -15.117   -15.114     0.003
S(-2)            0.000e+00
	HS-               0.000e+00   0.000e+00   -95.892   -95.973    -0.081
	H2S               0.000e+00   0.000e+00   -95.961   -95.958     0.003
	S-2               0.000e+00   0.000e+00  -100.813  -101.114    -0.300
S(6)             1.149e-02
	SO4-2             7.423e-03   3.707e-03    -2.129    -2.431    -0.302
	CaSO4             4.063e-03   4.091e-03    -2.391    -2.388     0.003
	HSO4-             4.106e-07   3.434e-07    -6.387    -6.464    -0.078
	CaHSO4+           1.856e-08   1.552e-08    -7.731    -7.809    -0.078

------------------------------Saturation indices-------------------------------

	Phase               SI log IAP  log KT

	Anhydrite        -0.00   -4.86   -4.86  CaSO4
	Gypsum           -0.15   -4.86   -4.71  CaSO4:2H2O
	H2(g)           -28.63  -31.96   -3.33  H2
	H2O(g)           -0.44   -0.00    0.44  H2O
	H2S(g)          -94.50  -95.96   -1.46  H2S
	O2(g)           -12.02  -15.11   -3.09  O2
	Sulfur          -71.24  -67.33    3.92  S

Reaction step 50.

Using solution 1.	Pure water
Using pure phase assemblage 1.	
Using temperature 1.	

-------------------------------Phase assemblage--------------------------------

                                                     Moles in assemblage
	Phase               SI log IAP  log KT    Initial      Final      Delta

	Anhydrite         0.00   -4.87   -4.87  1.000e-00  1.988e+00  9.884e-01
	Gypsum           -0.16   -4.87   -4.71  1.000e+00            -1.000e+00

-----------------------------Solution composition------------------------------

	Elements           Molality       Moles

	Ca                1.121e-02   1.162e-02
	S                 1.121e-02   1.162e-02

----------------------------Description of solution----------------------------

                                       pH  =   6.539      Charge balance
                                       pe  =   7.717      Adjusted to redox equilibrium
                        Activity of water  =   1.000
                           Ionic strength  =   2.905e-02
                       Mass of water (kg)  =   1.036e+00
                 Total alkalinity (eq/kg)  =   1.044e-10
                    Total carbon (mol/kg)  =   0.000e+00
                       Total CO2 (mol/kg)  =   0.000e+00
                      Temperature (deg C)  =  74.000
                  Electrical balance (eq)  =  -1.082e-10
 Percent error, 100*(Cat-|An|)/(Cat+|An|)  =  -0.00
                               Iterations  =  17
                                  Total H  = 1.150124e+02
                                  Total O  = 5.755268e+01

----------------------------Distribution of species----------------------------

	                                           Log       Log         Log 
	Species            Molality    Activity  Molality  Activity     Gamma

	OH-               7.741e-07   6.439e-07    -6.111    -6.191    -0.080
	H+                3.347e-07   2.893e-07    -6.475    -6.539    -0.063
	H2O               5.551e+01   9.997e-01     1.744    -0.000     0.000
Ca               1.121e-02
	Ca+2              7.263e-03   3.693e-03    -2.139    -2.433    -0.294
	CaSO4             3.950e-03   3.976e-03    -2.403    -2.401     0.003
	CaHSO4+           1.878e-08   1.572e-08    -7.726    -7.803    -0.077
	CaOH+             2.530e-09   2.118e-09    -8.597    -8.674    -0.077
H(0)             2.849e-32
	H2                1.424e-32   1.434e-32   -31.846   -31.843     0.003
O(0)             1.535e-15
	O2                7.676e-16   7.727e-16   -15.115   -15.112     0.003
S(-2)            0.000e+00
	HS-               0.000e+00   0.000e+00   -95.515   -95.595    -0.080
	H2S               0.000e+00   0.000e+00   -95.578   -95.575     0.003
	S-2               0.000e+00   0.000e+00  -100.424  -100.722    -0.299
S(6)             1.121e-02
	SO4-2             7.262e-03   3.642e-03    -2.139    -2.439    -0.300
	CaSO4             3.950e-03   3.976e-03    -2.403    -2.401     0.003
	HSO4-             4.230e-07   3.541e-07    -6.374    -6.451    -0.077
	CaHSO4+           1.878e-08   1.572e-08    -7.726    -7.803    -0.077

------------------------------Saturation indices-------------------------------

	Phase               SI log IAP  log KT

	Anhydrite         0.00   -4.87   -4.87  CaSO4
	Gypsum           -0.16   -4.87   -4.71  CaSO4:2H2O
	H2(g)           -28.51  -31.84   -3.33  H2
	H2O(g)           -0.42   -0.00    0.42  H2O
	H2S(g)          -94.11  -95.57   -1.47  H2S
	O2(g)           -12.02  -15.11   -3.10  O2
	Sulfur          -70.96  -67.06    3.90  S

Reaction step 51.

Using solution 1.	Pure water
Using pure phase assemblage 1.	
Using temperature 1.	

-------------------------------Phase assemblage--------------------------------

                                                     Moles in assemblage
	Phase               SI log IAP  log KT    Initial      Final      Delta

	Anhydrite         0.00   -4.89   -4.89  1.000e-00  1.989e+00  9.887e-01
	Gypsum           -0.17   -4.89   -4.72  1.000e+00            -1.000e+00

-----------------------------Solution composition------------------------------

	Elements           Molality       Moles

	Ca                1.094e-02   1.134e-02
	S                 1.094e-02   1.134e-02

----------------------------Description of solution----------------------------

                                       pH  =   6.530      Charge balance
                                       pe  =   7.667      Adjusted to redox equilibrium
                        Activity of water  =   1.000
                           Ionic strength  =   2.841e-02
                       Mass of water (kg)  =   1.036e+00
                 Total alkalinity (eq/kg)  =   1.044e-10
                    Total carbon (mol/kg)  =   0.000e+00
                       Total CO2 (mol/kg)  =   0.000e+00
                      Temperature (deg C)  =  75.000
                  Electrical balance (eq)  =  -1.082e-10
 Percent error, 100*(Cat-|An|)/(Cat+|An|)  =  -0.00
                               Iterations  =  17
                                  Total H  = 1.150124e+02
                                  Total O  = 5.755156e+01

----------------------------Distribution of species----------------------------

	                                           Log       Log         Log 
	Species            Molality    Activity  Molality  Activity     Gamma

	OH-               7.935e-07   6.609e-07    -6.100    -6.180    -0.079
	H+                3.412e-07   2.952e-07    -6.467    -6.530    -0.063
	H2O               5.551e+01   9.997e-01     1.744    -0.000     0.000
Ca               1.094e-02
	Ca+2              7.104e-03   3.627e-03    -2.149    -2.440    -0.292
	CaSO4             3.838e-03   3.863e-03    -2.416    -2.413     0.003
	CaHSO4+           1.900e-08   1.592e-08    -7.721    -7.798    -0.077
	CaOH+             2.432e-09   2.039e-09    -8.614    -8.691    -0.077
H(0)             3.705e-32
	H2                1.853e-32   1.865e-32   -31.732   -31.729     0.003
O(0)             1.568e-15
	O2                7.842e-16   7.894e-16   -15.106   -15.103     0.003
S(-2)            0.000e+00
	HS-               0.000e+00   0.000e+00   -95.154   -95.233    -0.079
	H2S               0.000e+00   0.000e+00   -95.211   -95.208     0.003
	S-2               0.000e+00   0.000e+00  -100.051  -100.348    -0.297
S(6)             1.094e-02
	SO4-2             7.103e-03   3.579e-03    -2.149    -2.446    -0.298
	CaSO4             3.838e-03   3.863e-03    -2.416    -2.413     0.003
	HSO4-             4.356e-07   3.651e-07    -6.361    -6.438    -0.077
	CaHSO4+           1.900e-08   1.592e-08    -7.721    -7.798    -0.077

------------------------------Saturation indices-------------------------------

	Phase               SI log IAP  log KT

	Anhydrite        -0.00   -4.89   -4.89  CaSO4
	Gypsum           -0.17   -4.89   -4.72  CaSO4:2H2O
	H2(g)           -28.39  -31.73   -3.34  H2
	H2O(g)           -0.40   -0.00    0.40  H2O
	H2S(g)          -93.73  -95.21   -1.48  H2S
	O2(g)           -12.00  -15.10   -3.10  O2
	Sulfur          -70.70  -66.81    3.88  S

------------------
End of simulation.
------------------

------------------------------------
Reading input data for simulation 2.
------------------------------------

-----------
End of run.
-----------

No memory leaks
