   Input file: millero
  Output file: millero.out
Database file: ../database/phreeqd.dat

------------------
Reading data base.
------------------

	SOLUTION_MASTER_SPECIES
	SOLUTION_SPECIES
	PHASES
	EXCHANGE_MASTER_SPECIES
	EXCHANGE_SPECIES
	SURFACE_MASTER_SPECIES
	SURFACE_SPECIES
	RATES
	END
------------------------------------
Reading input data for simulation 1.
------------------------------------

	DATABASE ../database/phreeqd.dat
	SELECTED_OUTPUT
	   file millero.csv
	   reset false
	USER_PUNCH
	headings tc rho
	start
	10 punch TC, RHO
	end
	SOLUTION 1  SEAWATER FROM Millero 2008
	        units   ppt
	        pH      8.1
	        temp    25.0
	        Na              10.78145
	        Mg              1.28372
	        Ca              0.41208
	        K               0.39910
	        Sr              0.00795
	        Cl              19.35271
	        S(6)            2.71235
	        Alkalinity      .140346 as HCO3
	        Br              0.06728
	        F               0.00130
	        B               0.004489072
	END
-------------------------------------------
Beginning of initial solution calculations.
-------------------------------------------

Initial solution 1.	SEAWATER FROM Millero 2008

-----------------------------Solution composition------------------------------

	Elements           Molality       Moles

	Alkalinity       2.384e-003  2.384e-003
	B                4.304e-004  4.304e-004
	Br               8.727e-004  8.727e-004
	Ca               1.066e-002  1.066e-002
	Cl               5.658e-001  5.658e-001
	F                7.092e-005  7.092e-005
	K                1.058e-002  1.058e-002
	Mg               5.473e-002  5.473e-002
	Na               4.861e-001  4.861e-001
	S(6)             2.926e-002  2.926e-002
	Sr               9.404e-005  9.404e-005

----------------------------Description of solution----------------------------

                                       pH  =   8.100    
                                       pe  =   4.000    
       Specific Conductance (uS/cm, 25 oC) = 52860
                          Density (g/cm3)  =   1.02333
                        Activity of water  =   0.981
                           Ionic strength  =  6.753e-001
                       Mass of water (kg)  =  1.000e+000
                    Total carbon (mol/kg)  =  2.174e-003
                       Total CO2 (mol/kg)  =  2.174e-003
                      Temperature (deg C)  =  25.000
                  Electrical balance (eq)  = -2.913e-005
 Percent error, 100*(Cat-|An|)/(Cat+|An|)  =  -0.00
                               Iterations  =   8
                                  Total H  = 1.110157e+002
                                  Total O  = 5.563108e+001

----------------------------Distribution of species----------------------------

                                                   Log       Log         Log 
   Species                 Molality    Activity  Molality  Activity     Gamma

   OH-                   2.029e-006  1.236e-006    -5.693    -5.908    -0.215
   H+                    1.052e-008  7.943e-009    -7.978    -8.100    -0.122
   H2O                   5.551e+001  9.805e-001     1.744    -0.009     0.000
B               4.304e-004
   H3BO3                 3.866e-004  4.516e-004    -3.413    -3.345     0.068
   H2BO3-                4.379e-005  3.272e-005    -4.359    -4.485    -0.127
   BF(OH)3-              5.612e-009  4.193e-009    -8.251    -8.377    -0.127
   BF2(OH)2-             1.136e-013  8.490e-014   -12.945   -13.071    -0.127
   BF3OH-                2.354e-020  1.759e-020   -19.628   -19.755    -0.127
   BF4-                  1.812e-026  1.354e-026   -25.742   -25.868    -0.127
Br              8.727e-004
   Br-                   8.727e-004  5.123e-004    -3.059    -3.290    -0.231
C(4)            2.174e-003
   HCO3-                 1.546e-003  1.044e-003    -2.811    -2.981    -0.170
   MgHCO3+               2.227e-004  1.664e-004    -3.652    -3.779    -0.127
   NaHCO3                1.705e-004  1.992e-004    -3.768    -3.701     0.068
   MgCO3                 6.859e-005  8.013e-005    -4.164    -4.096     0.068
   NaCO3-                5.211e-005  3.894e-005    -4.283    -4.410    -0.127
   CaHCO3+               4.694e-005  3.171e-005    -4.328    -4.499    -0.170
   CO3-2                 2.961e-005  6.166e-006    -4.529    -5.210    -0.681
   CaCO3                 2.110e-005  2.465e-005    -4.676    -4.608     0.068
   CO2                   1.628e-005  1.902e-005    -4.788    -4.721     0.068
   SrHCO3+               4.889e-007  3.302e-007    -6.311    -6.481    -0.170
   SrCO3                 6.965e-008  8.137e-008    -7.157    -7.090     0.068
Ca              1.066e-002
   Ca+2                  9.503e-003  2.380e-003    -2.022    -2.623    -0.601
   CaSO4                 1.084e-003  1.267e-003    -2.965    -2.897     0.068
   CaHCO3+               4.694e-005  3.171e-005    -4.328    -4.499    -0.170
   CaCO3                 2.110e-005  2.465e-005    -4.676    -4.608     0.068
   CaF+                  6.470e-007  4.835e-007    -6.189    -6.316    -0.127
   CaOH+                 6.525e-008  4.876e-008    -7.185    -7.312    -0.127
   CaHSO4+               7.889e-011  5.895e-011   -10.103   -10.230    -0.127
Cl              5.658e-001
   Cl-                   5.658e-001  3.528e-001    -0.247    -0.452    -0.205
F               7.092e-005
   F-                    3.829e-005  2.332e-005    -4.417    -4.632    -0.215
   MgF+                  2.809e-005  2.099e-005    -4.552    -4.678    -0.127
   NaF                   3.896e-006  4.551e-006    -5.409    -5.342     0.068
   CaF+                  6.470e-007  4.835e-007    -6.189    -6.316    -0.127
   BF(OH)3-              5.612e-009  4.193e-009    -8.251    -8.377    -0.127
   HF                    2.378e-010  2.778e-010    -9.624    -9.556     0.068
   BF2(OH)2-             1.136e-013  8.490e-014   -12.945   -13.071    -0.127
   HF2-                  3.327e-014  2.486e-014   -13.478   -13.604    -0.127
   BF3OH-                2.354e-020  1.759e-020   -19.628   -19.755    -0.127
   BF4-                  1.812e-026  1.354e-026   -25.742   -25.868    -0.127
H(0)            7.647e-028
   H2                    3.824e-028  4.467e-028   -27.418   -27.350     0.068
K               1.058e-002
   K+                    1.042e-002  6.495e-003    -1.982    -2.187    -0.205
   KSO4-                 1.629e-004  1.217e-004    -3.788    -3.915    -0.127
   KOH                   2.380e-009  2.780e-009    -8.624    -8.556     0.068
Mg              5.473e-002
   Mg+2                  4.711e-002  1.362e-002    -1.327    -1.866    -0.539
   MgSO4                 7.290e-003  8.517e-003    -2.137    -2.070     0.068
   MgHCO3+               2.227e-004  1.664e-004    -3.652    -3.779    -0.127
   MgCO3                 6.859e-005  8.013e-005    -4.164    -4.096     0.068
   MgF+                  2.809e-005  2.099e-005    -4.552    -4.678    -0.127
   MgOH+                 8.169e-006  6.104e-006    -5.088    -5.214    -0.127
Na              4.861e-001
   Na+                   4.798e-001  3.391e-001    -0.319    -0.470    -0.151
   NaSO4-                6.068e-003  4.534e-003    -2.217    -2.344    -0.127
   NaHCO3                1.705e-004  1.992e-004    -3.768    -3.701     0.068
   NaCO3-                5.211e-005  3.894e-005    -4.283    -4.410    -0.127
   NaF                   3.896e-006  4.551e-006    -5.409    -5.342     0.068
   NaOH                  2.368e-007  2.766e-007    -6.626    -6.558     0.068
O(0)            3.439e-038
   O2                    1.719e-038  2.009e-038   -37.765   -37.697     0.068
S(6)            2.926e-002
   SO4-2                 1.465e-002  2.668e-003    -1.834    -2.574    -0.740
   MgSO4                 7.290e-003  8.517e-003    -2.137    -2.070     0.068
   NaSO4-                6.068e-003  4.534e-003    -2.217    -2.344    -0.127
   CaSO4                 1.084e-003  1.267e-003    -2.965    -2.897     0.068
   KSO4-                 1.629e-004  1.217e-004    -3.788    -3.915    -0.127
   SrSO4                 9.204e-006  1.075e-005    -5.036    -4.969     0.068
   HSO4-                 2.757e-009  2.060e-009    -8.560    -8.686    -0.127
   CaHSO4+               7.889e-011  5.895e-011   -10.103   -10.230    -0.127
Sr              9.404e-005
   Sr+2                  8.428e-005  2.067e-005    -4.074    -4.685    -0.610
   SrSO4                 9.204e-006  1.075e-005    -5.036    -4.969     0.068
   SrHCO3+               4.889e-007  3.302e-007    -6.311    -6.481    -0.170
   SrCO3                 6.965e-008  8.137e-008    -7.157    -7.090     0.068
   SrOH+                 1.973e-010  1.309e-010    -9.705    -9.883    -0.178

------------------------------Saturation indices-------------------------------

	Phase               SI log IAP  log KT

	Anhydrite        -0.84   -5.20   -4.36  CaSO4
	Aragonite         0.50   -7.83   -8.34  CaCO3
	Calcite           0.65   -7.83   -8.48  CaCO3
	Celestite        -0.63   -7.26   -6.63  SrSO4
	CO2(g)           -3.25   -4.72   -1.47  CO2
	Dolomite          2.18  -14.91  -17.09  CaMg(CO3)2
	Fluorite         -1.29  -11.89  -10.60  CaF2
	Gypsum           -0.63   -5.21   -4.58  CaSO4:2H2O
	H2(g)           -24.16   18.84   43.00  H2
	H2O(g)           -1.51   -0.01    1.51  H2O
	Halite           -2.50   -0.92    1.58  NaCl
	O2(g)           -34.80  -37.70   -2.89  O2
	Strontianite     -0.62   -9.89   -9.27  SrCO3

------------------
End of simulation.
------------------

------------------------------------
Reading input data for simulation 2.
------------------------------------

	SOLUTION 2  Lake Baikal (Millero, 2000)
	        units   mmol/l
	        pH      7.00
	        temp    25.0
	        Na              0.155
	        Mg              0.126
	        Ca              0.402
	        K               0.0241
	        Cl              0.0124
	        S(6)            0.0574
	        Alkalinity      1.093
	END
-------------------------------------------
Beginning of initial solution calculations.
-------------------------------------------

Initial solution 2.	Lake Baikal (Millero, 2000)

-----------------------------Solution composition------------------------------

	Elements           Molality       Moles

	Alkalinity       1.093e-003  1.093e-003
	Ca               4.020e-004  4.020e-004
	Cl               1.240e-005  1.240e-005
	K                2.410e-005  2.410e-005
	Mg               1.260e-004  1.260e-004
	Na               1.550e-004  1.550e-004
	S(6)             5.740e-005  5.740e-005

----------------------------Description of solution----------------------------

                                       pH  =   7.000    
                                       pe  =   4.000    
       Specific Conductance (uS/cm, 25 oC) = 120
                          Density (g/cm3)  =   0.99713
                        Activity of water  =   1.000
                           Ionic strength  =  1.785e-003
                       Mass of water (kg)  =  1.000e+000
                    Total carbon (mol/kg)  =  1.325e-003
                       Total CO2 (mol/kg)  =  1.325e-003
                      Temperature (deg C)  =  25.000
                  Electrical balance (eq)  =  1.490e-005
 Percent error, 100*(Cat-|An|)/(Cat+|An|)  =   0.61
                               Iterations  =   6
                                  Total H  = 1.110135e+002
                                  Total O  = 5.551019e+001

----------------------------Distribution of species----------------------------

                                                   Log       Log         Log 
   Species                 Molality    Activity  Molality  Activity     Gamma

   OH-                   1.049e-007  1.001e-007    -6.979    -7.000    -0.021
   H+                    1.045e-007  1.000e-007    -6.981    -7.000    -0.019
   H2O                   5.551e+001  1.000e+000     1.744    -0.000     0.000
C(4)            1.325e-003
   HCO3-                 1.085e-003  1.036e-003    -2.964    -2.984    -0.020
   CO2                   2.329e-004  2.330e-004    -3.633    -3.633     0.000
   CaHCO3+               4.540e-006  4.335e-006    -5.343    -5.363    -0.020
   MgHCO3+               1.308e-006  1.248e-006    -5.884    -5.904    -0.020
   CO3-2                 5.845e-007  4.861e-007    -6.233    -6.313    -0.080
   CaCO3                 2.676e-007  2.677e-007    -6.573    -6.572     0.000
   NaHCO3                8.613e-008  8.616e-008    -7.065    -7.065     0.000
   MgCO3                 4.770e-008  4.772e-008    -7.321    -7.321     0.000
   NaCO3-                1.402e-009  1.338e-009    -8.853    -8.874    -0.020
Ca              4.020e-004
   Ca+2                  3.943e-004  3.278e-004    -3.404    -3.484    -0.080
   CaHCO3+               4.540e-006  4.335e-006    -5.343    -5.363    -0.020
   CaSO4                 2.900e-006  2.901e-006    -5.538    -5.537     0.000
   CaCO3                 2.676e-007  2.677e-007    -6.573    -6.572     0.000
   CaOH+                 5.702e-010  5.441e-010    -9.244    -9.264    -0.020
   CaHSO4+               1.781e-012  1.700e-012   -11.749   -11.770    -0.020
Cl              1.240e-005
   Cl-                   1.240e-005  1.183e-005    -4.907    -4.927    -0.020
H(0)            1.415e-025
   H2                    7.077e-026  7.079e-026   -25.150   -25.150     0.000
K               2.410e-005
   K+                    2.409e-005  2.298e-005    -4.618    -4.639    -0.020
   KSO4-                 7.507e-009  7.163e-009    -8.125    -8.145    -0.020
   KOH                   7.966e-013  7.969e-013   -12.099   -12.099     0.000
Mg              1.260e-004
   Mg+2                  1.236e-004  1.029e-004    -3.908    -3.988    -0.080
   MgHCO3+               1.308e-006  1.248e-006    -5.884    -5.904    -0.020
   MgSO4                 1.069e-006  1.070e-006    -5.971    -5.971     0.000
   MgCO3                 4.770e-008  4.772e-008    -7.321    -7.321     0.000
   MgOH+                 3.915e-009  3.735e-009    -8.407    -8.428    -0.020
Na              1.550e-004
   Na+                   1.549e-004  1.478e-004    -3.810    -3.830    -0.020
   NaHCO3                8.613e-008  8.616e-008    -7.065    -7.065     0.000
   NaSO4-                3.444e-008  3.286e-008    -7.463    -7.483    -0.020
   NaCO3-                1.402e-009  1.338e-009    -8.853    -8.874    -0.020
   NaOH                  9.763e-012  9.767e-012   -11.010   -11.010     0.000
O(0)            0.000e+000
   O2                    0.000e+000  0.000e+000   -42.080   -42.080     0.000
S(6)            5.740e-005
   SO4-2                 5.339e-005  4.435e-005    -4.273    -4.353    -0.081
   CaSO4                 2.900e-006  2.901e-006    -5.538    -5.537     0.000
   MgSO4                 1.069e-006  1.070e-006    -5.971    -5.971     0.000
   NaSO4-                3.444e-008  3.286e-008    -7.463    -7.483    -0.020
   KSO4-                 7.507e-009  7.163e-009    -8.125    -8.145    -0.020
   HSO4-                 4.519e-010  4.312e-010    -9.345    -9.365    -0.020
   CaHSO4+               1.781e-012  1.700e-012   -11.749   -11.770    -0.020

------------------------------Saturation indices-------------------------------

	Phase               SI log IAP  log KT

	Anhydrite        -3.48   -7.84   -4.36  CaSO4
	Aragonite        -1.46   -9.80   -8.34  CaCO3
	Calcite          -1.32   -9.80   -8.48  CaCO3
	CO2(g)           -2.16   -3.63   -1.47  CO2
	Dolomite         -3.01  -20.10  -17.09  CaMg(CO3)2
	Gypsum           -3.26   -7.84   -4.58  CaSO4:2H2O
	H2(g)           -21.96   21.04   43.00  H2
	H2O(g)           -1.51   -0.00    1.51  H2O
	Halite          -10.34   -8.76    1.58  NaCl
	O2(g)           -39.19  -42.08   -2.89  O2

------------------
End of simulation.
------------------

------------------------------------
Reading input data for simulation 3.
------------------------------------

	SOLUTION 3  Lake Malawi (Millero, 2000)
	        units   mmol/l
	        pH      7.00
	        temp    25.0
	        Na              0.875
	        Mg              0.3075
	        Ca              0.4525
	        K               0.16
	        Cl              0.14
	        S(6)            0.0775
	        Alkalinity      2.32 #(2.309 + 2 * 0.0055)
	END
-------------------------------------------
Beginning of initial solution calculations.
-------------------------------------------

Initial solution 3.	Lake Malawi (Millero, 2000)

-----------------------------Solution composition------------------------------

	Elements           Molality       Moles

	Alkalinity       2.320e-003  2.320e-003
	Ca               4.526e-004  4.526e-004
	Cl               1.400e-004  1.400e-004
	K                1.600e-004  1.600e-004
	Mg               3.076e-004  3.076e-004
	Na               8.752e-004  8.752e-004
	S(6)             7.751e-005  7.751e-005

----------------------------Description of solution----------------------------

                                       pH  =   7.000    
                                       pe  =   4.000    
       Specific Conductance (uS/cm, 25 oC) = 248
                          Density (g/cm3)  =   0.99721
                        Activity of water  =   1.000
                           Ionic strength  =  3.361e-003
                       Mass of water (kg)  =  1.000e+000
                    Total carbon (mol/kg)  =  2.804e-003
                       Total CO2 (mol/kg)  =  2.804e-003
                      Temperature (deg C)  =  25.000
                  Electrical balance (eq)  = -6.001e-005
 Percent error, 100*(Cat-|An|)/(Cat+|An|)  =  -1.18
                               Iterations  =   7
                                  Total H  = 1.110147e+002
                                  Total O  = 5.551445e+001

----------------------------Distribution of species----------------------------

                                                   Log       Log         Log 
   Species                 Molality    Activity  Molality  Activity     Gamma

   OH-                   1.067e-007  1.001e-007    -6.972    -7.000    -0.028
   H+                    1.060e-007  1.000e-007    -6.975    -7.000    -0.025
   H2O                   5.551e+001  9.999e-001     1.744    -0.000     0.000
C(4)            2.804e-003
   HCO3-                 2.299e-003  2.161e-003    -2.638    -2.665    -0.027
   CO2                   4.856e-004  4.860e-004    -3.314    -3.313     0.000
   CaHCO3+               1.004e-005  9.439e-006    -4.998    -5.025    -0.027
   MgHCO3+               6.286e-006  5.902e-006    -5.202    -5.229    -0.027
   CO3-2                 1.297e-006  1.014e-006    -5.887    -5.994    -0.107
   NaHCO3                9.970e-007  9.977e-007    -6.001    -6.001     0.000
   CaCO3                 5.824e-007  5.829e-007    -6.235    -6.234     0.000
   MgCO3                 2.255e-007  2.257e-007    -6.647    -6.646     0.000
   NaCO3-                1.650e-008  1.549e-008    -7.782    -7.810    -0.027
Ca              4.526e-004
   Ca+2                  4.382e-004  3.423e-004    -3.358    -3.466    -0.107
   CaHCO3+               1.004e-005  9.439e-006    -4.998    -5.025    -0.027
   CaSO4                 3.750e-006  3.753e-006    -5.426    -5.426     0.000
   CaCO3                 5.824e-007  5.829e-007    -6.235    -6.234     0.000
   CaOH+                 6.050e-010  5.680e-010    -9.218    -9.246    -0.027
   CaHSO4+               2.342e-012  2.198e-012   -11.630   -11.658    -0.027
Cl              1.400e-004
   Cl-                   1.400e-004  1.314e-004    -3.854    -3.881    -0.028
H(0)            1.415e-025
   H2                    7.074e-026  7.079e-026   -25.150   -25.150     0.000
K               1.600e-004
   K+                    1.600e-004  1.501e-004    -3.796    -3.824    -0.028
   KSO4-                 6.173e-008  5.795e-008    -7.210    -7.237    -0.027
   KOH                   5.200e-012  5.204e-012   -11.284   -11.284     0.000
Mg              3.076e-004
   Mg+2                  2.980e-004  2.334e-004    -3.526    -3.632    -0.106
   MgHCO3+               6.286e-006  5.902e-006    -5.202    -5.229    -0.027
   MgSO4                 3.004e-006  3.006e-006    -5.522    -5.522     0.000
   MgCO3                 2.255e-007  2.257e-007    -6.647    -6.646     0.000
   MgOH+                 9.024e-009  8.472e-009    -8.045    -8.072    -0.027
Na              8.752e-004
   Na+                   8.739e-004  8.209e-004    -3.059    -3.086    -0.027
   NaHCO3                9.970e-007  9.977e-007    -6.001    -6.001     0.000
   NaSO4-                2.408e-007  2.261e-007    -6.618    -6.646    -0.027
   NaCO3-                1.650e-008  1.549e-008    -7.782    -7.810    -0.027
   NaOH                  5.419e-011  5.423e-011   -10.266   -10.266     0.000
O(0)            0.000e+000
   O2                    0.000e+000  0.000e+000   -42.080   -42.080     0.000
S(6)            7.751e-005
   SO4-2                 7.046e-005  5.495e-005    -4.152    -4.260    -0.108
   CaSO4                 3.750e-006  3.753e-006    -5.426    -5.426     0.000
   MgSO4                 3.004e-006  3.006e-006    -5.522    -5.522     0.000
   NaSO4-                2.408e-007  2.261e-007    -6.618    -6.646    -0.027
   KSO4-                 6.173e-008  5.795e-008    -7.210    -7.237    -0.027
   HSO4-                 5.690e-010  5.342e-010    -9.245    -9.272    -0.027
   CaHSO4+               2.342e-012  2.198e-012   -11.630   -11.658    -0.027

------------------------------Saturation indices-------------------------------

	Phase               SI log IAP  log KT

	Anhydrite        -3.36   -7.73   -4.36  CaSO4
	Aragonite        -1.12   -9.46   -8.34  CaCO3
	Calcite          -0.98   -9.46   -8.48  CaCO3
	CO2(g)           -1.85   -3.31   -1.47  CO2
	Dolomite         -2.00  -19.09  -17.09  CaMg(CO3)2
	Gypsum           -3.14   -7.73   -4.58  CaSO4:2H2O
	H2(g)           -21.96   21.04   43.00  H2
	H2O(g)           -1.51   -0.00    1.51  H2O
	Halite           -8.55   -6.97    1.58  NaCl
	O2(g)           -39.19  -42.08   -2.89  O2

------------------
End of simulation.
------------------

------------------------------------
Reading input data for simulation 4.
------------------------------------

	SOLUTION 4  Lake Tanganyika (Millero, 2000)
	        units   mmol/l
	        pH      7.00
	        temp    25.0
	        Na              2.72
	        Mg              1.65
	        Ca              0.27
	        K               0.82
	        Cl              0.62
	        S(6)            0.06
	        Alkalinity      6.52
	END
-------------------------------------------
Beginning of initial solution calculations.
-------------------------------------------

Initial solution 4.	Lake Tanganyika (Millero, 2000)

-----------------------------Solution composition------------------------------

	Elements           Molality       Moles

	Alkalinity       6.523e-003  6.523e-003
	Ca               2.701e-004  2.701e-004
	Cl               6.203e-004  6.203e-004
	K                8.204e-004  8.204e-004
	Mg               1.651e-003  1.651e-003
	Na               2.721e-003  2.721e-003
	S(6)             6.003e-005  6.003e-005

----------------------------Description of solution----------------------------

                                       pH  =   7.000    
                                       pe  =   4.000    
       Specific Conductance (uS/cm, 25 oC) = 674
                          Density (g/cm3)  =   0.99748
                        Activity of water  =   1.000
                           Ionic strength  =  9.061e-003
                       Mass of water (kg)  =  1.000e+000
                    Total carbon (mol/kg)  =  7.822e-003
                       Total CO2 (mol/kg)  =  7.822e-003
                      Temperature (deg C)  =  25.000
                  Electrical balance (eq)  =  1.201e-004
 Percent error, 100*(Cat-|An|)/(Cat+|An|)  =   0.83
                               Iterations  =   9
                                  Total H  = 1.110189e+002
                                  Total O  = 5.552862e+001

----------------------------Distribution of species----------------------------

                                                   Log       Log         Log 
   Species                 Molality    Activity  Molality  Activity     Gamma

   OH-                   1.107e-007  1.001e-007    -6.956    -7.000    -0.044
   H+                    1.091e-007  1.000e-007    -6.962    -7.000    -0.038
   H2O                   5.551e+001  9.998e-001     1.744    -0.000     0.000
C(4)            7.822e-003
   HCO3-                 6.405e-003  5.822e-003    -2.193    -2.235    -0.041
   CO2                   1.307e-003  1.309e-003    -2.884    -2.883     0.001
   MgHCO3+               8.042e-005  7.286e-005    -4.095    -4.138    -0.043
   CaHCO3+               1.416e-005  1.287e-005    -4.849    -4.891    -0.041
   NaHCO3                8.038e-006  8.055e-006    -5.095    -5.094     0.001
   CO3-2                 4.001e-006  2.730e-006    -5.398    -5.564    -0.166
   MgCO3                 2.781e-006  2.787e-006    -5.556    -5.555     0.001
   CaCO3                 7.929e-007  7.946e-007    -6.101    -6.100     0.001
   NaCO3-                1.381e-007  1.251e-007    -6.860    -6.903    -0.043
Ca              2.701e-004
   Ca+2                  2.540e-004  1.732e-004    -3.595    -3.761    -0.166
   CaHCO3+               1.416e-005  1.287e-005    -4.849    -4.891    -0.041
   CaSO4                 1.165e-006  1.168e-006    -5.933    -5.933     0.001
   CaCO3                 7.929e-007  7.946e-007    -6.101    -6.100     0.001
   CaOH+                 3.173e-010  2.874e-010    -9.499    -9.541    -0.043
   CaHSO4+               7.552e-013  6.842e-013   -12.122   -12.165    -0.043
Cl              6.203e-004
   Cl-                   6.203e-004  5.611e-004    -3.207    -3.251    -0.044
H(0)            1.413e-025
   H2                    7.065e-026  7.079e-026   -25.151   -25.150     0.001
K               8.204e-004
   K+                    8.202e-004  7.419e-004    -3.086    -3.130    -0.044
   KSO4-                 1.944e-007  1.761e-007    -6.711    -6.754    -0.043
   KOH                   2.567e-011  2.572e-011   -10.591   -10.590     0.001
Mg              1.651e-003
   Mg+2                  1.559e-003  1.070e-003    -2.807    -2.971    -0.164
   MgHCO3+               8.042e-005  7.286e-005    -4.095    -4.138    -0.043
   MgSO4                 8.454e-006  8.472e-006    -5.073    -5.072     0.001
   MgCO3                 2.781e-006  2.787e-006    -5.556    -5.555     0.001
   MgOH+                 4.285e-008  3.883e-008    -7.368    -7.411    -0.043
Na              2.721e-003
   Na+                   2.713e-003  2.460e-003    -2.567    -2.609    -0.042
   NaHCO3                8.038e-006  8.055e-006    -5.095    -5.094     0.001
   NaSO4-                4.599e-007  4.166e-007    -6.337    -6.380    -0.043
   NaCO3-                1.381e-007  1.251e-007    -6.860    -6.903    -0.043
   NaOH                  1.622e-010  1.625e-010    -9.790    -9.789     0.001
O(0)            0.000e+000
   O2                    0.000e+000  0.000e+000   -42.081   -42.080     0.001
S(6)            6.003e-005
   SO4-2                 4.976e-005  3.379e-005    -4.303    -4.471    -0.168
   MgSO4                 8.454e-006  8.472e-006    -5.073    -5.072     0.001
   CaSO4                 1.165e-006  1.168e-006    -5.933    -5.933     0.001
   NaSO4-                4.599e-007  4.166e-007    -6.337    -6.380    -0.043
   KSO4-                 1.944e-007  1.761e-007    -6.711    -6.754    -0.043
   HSO4-                 3.626e-010  3.285e-010    -9.441    -9.483    -0.043
   CaHSO4+               7.552e-013  6.842e-013   -12.122   -12.165    -0.043

------------------------------Saturation indices-------------------------------

	Phase               SI log IAP  log KT

	Anhydrite        -3.87   -8.23   -4.36  CaSO4
	Aragonite        -0.99   -9.33   -8.34  CaCO3
	Calcite          -0.85   -9.33   -8.48  CaCO3
	CO2(g)           -1.42   -2.88   -1.47  CO2
	Dolomite         -0.77  -17.86  -17.09  CaMg(CO3)2
	Gypsum           -3.65   -8.23   -4.58  CaSO4:2H2O
	H2(g)           -21.96   21.04   43.00  H2
	H2O(g)           -1.51   -0.00    1.51  H2O
	Halite           -7.44   -5.86    1.58  NaCl
	O2(g)           -39.19  -42.08   -2.89  O2

------------------
End of simulation.
------------------

------------------------------------
Reading input data for simulation 5.
------------------------------------

	SOLUTION 5  Artificial river water (Millero et al., 1976)
	        units   ppm
	        pH      7.6
	        temp    25.0
	        Na              6.3
	        Mg              4.1
	        Ca              15.0
	        K               2.3
	        Cl              7.8
	        S(6)            11.2 as SO4
	        Alkalinity      58.0 as HCO3
	        N(5)            1.0 as NO3
	END
-------------------------------------------
Beginning of initial solution calculations.
-------------------------------------------

Initial solution 5.	Artificial river water (Millero et al., 1976)

-----------------------------Solution composition------------------------------

	Elements           Molality       Moles

	Alkalinity       9.506e-004  9.506e-004
	Ca               3.743e-004  3.743e-004
	Cl               2.200e-004  2.200e-004
	K                5.883e-005  5.883e-005
	Mg               1.687e-004  1.687e-004
	N(5)             1.613e-005  1.613e-005
	Na               2.741e-004  2.741e-004
	S(6)             1.166e-004  1.166e-004

----------------------------Description of solution----------------------------

                                       pH  =   7.600    
                                       pe  =   4.000    
       Specific Conductance (uS/cm, 25 oC) = 147
                          Density (g/cm3)  =   0.99713
                        Activity of water  =   1.000
                           Ionic strength  =  2.035e-003
                       Mass of water (kg)  =  1.000e+000
                    Total carbon (mol/kg)  =  9.976e-004
                       Total CO2 (mol/kg)  =  9.976e-004
                      Temperature (deg C)  =  25.000
                  Electrical balance (eq)  = -1.197e-006
 Percent error, 100*(Cat-|An|)/(Cat+|An|)  =  -0.04
                               Iterations  =   8
                                  Total H  = 1.110134e+002
                                  Total O  = 5.550967e+001

----------------------------Distribution of species----------------------------

                                                   Log       Log         Log 
   Species                 Molality    Activity  Molality  Activity     Gamma

   OH-                   4.191e-007  3.985e-007    -6.378    -6.400    -0.022
   H+                    2.632e-008  2.512e-008    -7.580    -7.600    -0.020
   H2O                   5.551e+001  1.000e+000     1.744    -0.000     0.000
C(4)            9.976e-004
   HCO3-                 9.388e-004  8.939e-004    -3.027    -3.049    -0.021
   CO2                   5.046e-005  5.049e-005    -4.297    -4.297     0.000
   CaHCO3+               3.588e-006  3.417e-006    -5.445    -5.466    -0.021
   CO3-2                 2.030e-006  1.669e-006    -5.692    -5.778    -0.085
   MgHCO3+               1.485e-006  1.413e-006    -5.828    -5.850    -0.022
   CaCO3                 8.396e-007  8.400e-007    -6.076    -6.076     0.000
   MgCO3                 2.150e-007  2.151e-007    -6.667    -6.667     0.000
   NaHCO3                1.309e-007  1.310e-007    -6.883    -6.883     0.000
   NaCO3-                8.512e-009  8.098e-009    -8.070    -8.092    -0.022
Ca              3.743e-004
   Ca+2                  3.645e-004  2.996e-004    -3.438    -3.523    -0.085
   CaSO4                 5.313e-006  5.316e-006    -5.275    -5.274     0.000
   CaHCO3+               3.588e-006  3.417e-006    -5.445    -5.466    -0.021
   CaCO3                 8.396e-007  8.400e-007    -6.076    -6.076     0.000
   CaOH+                 2.081e-009  1.979e-009    -8.682    -8.703    -0.022
   CaHSO4+               8.223e-013  7.823e-013   -12.085   -12.107    -0.022
Cl              2.200e-004
   Cl-                   2.200e-004  2.093e-004    -3.658    -3.679    -0.022
H(0)            8.929e-027
   H2                    4.465e-027  4.467e-027   -26.350   -26.350     0.000
K               5.883e-005
   K+                    5.879e-005  5.591e-005    -4.231    -4.253    -0.022
   KSO4-                 3.672e-008  3.494e-008    -7.435    -7.457    -0.022
   KOH                   7.714e-012  7.717e-012   -11.113   -11.113     0.000
Mg              1.687e-004
   Mg+2                  1.641e-004  1.351e-004    -3.785    -3.869    -0.085
   MgSO4                 2.815e-006  2.816e-006    -5.551    -5.550     0.000
   MgHCO3+               1.485e-006  1.413e-006    -5.828    -5.850    -0.022
   MgCO3                 2.150e-007  2.151e-007    -6.667    -6.667     0.000
   MgOH+                 2.052e-008  1.952e-008    -7.688    -7.709    -0.022
N(5)            1.613e-005
   NO3-                  1.613e-005  1.533e-005    -4.792    -4.814    -0.022
Na              2.741e-004
   Na+                   2.738e-004  2.606e-004    -3.563    -3.584    -0.022
   NaHCO3                1.309e-007  1.310e-007    -6.883    -6.883     0.000
   NaSO4-                1.221e-007  1.161e-007    -6.913    -6.935    -0.022
   NaCO3-                8.512e-009  8.098e-009    -8.070    -8.092    -0.022
   NaOH                  6.850e-011  6.853e-011   -10.164   -10.164     0.000
O(0)            4.176e-040
   O2                    2.088e-040  2.089e-040   -39.680   -39.680     0.000
S(6)            1.166e-004
   SO4-2                 1.083e-004  8.893e-005    -3.965    -4.051    -0.086
   CaSO4                 5.313e-006  5.316e-006    -5.275    -5.274     0.000
   MgSO4                 2.815e-006  2.816e-006    -5.551    -5.550     0.000
   NaSO4-                1.221e-007  1.161e-007    -6.913    -6.935    -0.022
   KSO4-                 3.672e-008  3.494e-008    -7.435    -7.457    -0.022
   HSO4-                 2.283e-010  2.172e-010    -9.642    -9.663    -0.022
   CaHSO4+               8.223e-013  7.823e-013   -12.085   -12.107    -0.022

------------------------------Saturation indices-------------------------------

	Phase               SI log IAP  log KT

	Anhydrite        -3.21   -7.57   -4.36  CaSO4
	Aragonite        -0.96   -9.30   -8.34  CaCO3
	Calcite          -0.82   -9.30   -8.48  CaCO3
	CO2(g)           -2.83   -4.30   -1.47  CO2
	Dolomite         -1.86  -18.95  -17.09  CaMg(CO3)2
	Gypsum           -2.99   -7.57   -4.58  CaSO4:2H2O
	H2(g)           -23.16   19.84   43.00  H2
	H2O(g)           -1.51   -0.00    1.51  H2O
	Halite           -8.85   -7.26    1.58  NaCl
	O2(g)           -36.79  -39.68   -2.89  O2

------------------
End of simulation.
------------------

------------------------------------
Reading input data for simulation 6.
------------------------------------

-----------
End of run.
-----------

