   Input file: mmb2
  Output file: mmb2.out
Database file: ../database/phreeqc.dat

------------------
Reading data base.
------------------

	SOLUTION_MASTER_SPECIES
	SOLUTION_SPECIES
	PHASES
	EXCHANGE_MASTER_SPECIES
	EXCHANGE_SPECIES
	SURFACE_MASTER_SPECIES
	SURFACE_SPECIES
	RATES
	END
------------------------------------
Reading input data for simulation 1.
------------------------------------

	DATABASE ../database/phreeqc.dat
	USER_PRINT
	 start
	 10 print 'edl_H2O', edl("water"), 'total water', edl("water") + tot("water"), -la("H+"), 'Na =', tot("Na"), 'Cl =', tot("Cl")
	 20 print 'EB =', charge_balance, 'sys_Ca =', sys("Ca"), 'sol =', cell_no, 'a_Na =', act("Na+")
	 end
	PRINT
	 reset false
----------------------------------User print-----------------------------------

edl_H2O            0 total water            1            7 Na =   1.0000e-03 Cl =   1.0020e-03 
EB =  -1.9868e-13 sys_Ca =   1.0000e-06 sol =            0 a_Na =   9.6514e-04 

----------------------------------User print-----------------------------------

edl_H2O            0 total water   6.1609e-01            7 Na =   5.0000e-01 Cl =   5.0000e-01 
EB =  -1.5305e-11 sys_Ca =            0 sol =            1 a_Na =   3.5460e-01 

----------------------------------User print-----------------------------------

edl_H2O   3.8391e-01 total water   1.0000e+00            7 Na =   5.0000e-01 Cl =   5.0000e-01 
EB =  -1.5946e-11 sys_Ca =            0 sol =            1 a_Na =   3.5460e-01 

WARNING: No dispersivities were read; disp = 0 assumed.
----------------------------------User print-----------------------------------

edl_H2O   3.8391e-01 total water   1.0000e+00            7 Na =   5.0000e-01 Cl =   5.0000e-01 
EB =  -1.5946e-11 sys_Ca =            0 sol =            1 a_Na =   3.5460e-01 

----------------------------------User print-----------------------------------

edl_H2O   9.9000e-01 total water   1.0000e+00   7.3249e+00 Na =   1.0178e-03 Cl =   1.0297e-03 
EB =  -1.1425e-07 sys_Ca =   2.6120e-03 sol =            1 a_Na =   9.8201e-04 

----------------------------------User print-----------------------------------

edl_H2O   9.9000e-01 total water   1.0000e+00   7.2316e+00 Na =   9.9606e-04 Cl =   1.0074e-03 
EB =  -9.8215e-08 sys_Ca =   6.2171e-03 sol =            1 a_Na =   9.6132e-04 

----------------------------------User print-----------------------------------

edl_H2O   9.9000e-01 total water   1.0000e+00   7.0450e+00 Na =   9.9608e-04 Cl =   1.0062e-03 
EB =  -8.2535e-08 sys_Ca =   7.0609e-03 sol =            1 a_Na =   9.6135e-04 

----------------------------------User print-----------------------------------

edl_H2O   9.9000e-01 total water   1.0000e+00   7.0061e+00 Na =   9.9670e-04 Cl =   1.0054e-03 
EB =  -6.6920e-08 sys_Ca =   7.2747e-03 sol =            1 a_Na =   9.6195e-04 

----------------------------------User print-----------------------------------

edl_H2O   9.9001e-01 total water   1.0000e+00   6.9986e+00 Na =   9.9728e-04 Cl =   1.0047e-03 
EB =  -5.4795e-08 sys_Ca =   7.3302e-03 sol =            1 a_Na =   9.6251e-04 

----------------------------------User print-----------------------------------

edl_H2O   9.9001e-01 total water   1.0000e+00   6.9931e+00 Na =   9.9808e-04 Cl =   1.0040e-03 
EB =  -3.9201e-08 sys_Ca =   7.3448e-03 sol =            1 a_Na =   9.6329e-04 

----------------------------------User print-----------------------------------

edl_H2O   9.9001e-01 total water   1.0000e+00   6.9927e+00 Na =   9.9883e-04 Cl =   1.0032e-03 
EB =  -2.3608e-08 sys_Ca =   7.3486e-03 sol =            1 a_Na =   9.6401e-04 

----------------------------------User print-----------------------------------

edl_H2O   9.9001e-01 total water   1.0000e+00   6.9924e+00 Na =   9.9960e-04 Cl =   1.0024e-03 
EB =  -8.0153e-09 sys_Ca =   7.3495e-03 sol =            1 a_Na =   9.6475e-04 

