-------------------------------------------
Beginning of initial solution calculations.
-------------------------------------------

Initial solution 1.	SEAWATER FROM NORDSTROM ET AL. (1979) TEST CASE IN PPM.                         

Overflow: (UO2)2(OH)2+2	1.000000e+03	7.675229e+01	-1
Overflow: (UO2)3(OH)5+	1.000000e+03	1.237496e+02	-1
Overflow: Al(OH)4-	1.000000e+03	3.223721e+00	-1
Overflow: U(OH)4	1.000000e+03	1.642679e+01	-1
Overflow: U(OH)5-	1.000000e+03	2.023379e+01	-1
Overflow: UO2(CO3)2-2	1.000000e+03	4.495565e+01	-1
Overflow: UO2(CO3)3-4	1.000000e+03	4.823734e+01	-1
Overflow: UO2+	1.000000e+03	2.717979e+01	-1
Overflow: UO2+2	1.000000e+03	3.321586e+01	-1
Overflow: UO2CO3	1.000000e+03	4.009519e+01	-1
Overflow: UO2OH+	1.000000e+03	3.528379e+01	-1
Overflow: (UO2)2(OH)2+2	1.000000e+03	5.283927e+01	-1
Overflow: (UO2)3(OH)5+	1.000000e+03	8.788011e+01	-1
Overflow: U(OH)4	1.000000e+03	4.470279e+00	-1
Overflow: U(OH)5-	1.000000e+03	8.277276e+00	-1
Overflow: UO2(CO3)2-2	1.000000e+03	2.020548e+01	-1
Overflow: UO2(CO3)3-4	1.000000e+03	1.709034e+01	-1
Overflow: UO2+	1.000000e+03	1.522328e+01	-1
Overflow: UO2+2	1.000000e+03	2.125935e+01	-1
Overflow: UO2CO3	1.000000e+03	2.174184e+01	-1
Overflow: UO2OH+	1.000000e+03	2.332728e+01	-1
Overflow: (UO2)2(OH)2+2	1.000000e+03	2.892624e+01	-1
Overflow: (UO2)3(OH)5+	1.000000e+03	5.201057e+01	-1
Overflow: UO2+	1.000000e+03	3.266763e+00	-1
Overflow: UO2+2	1.000000e+03	9.302837e+00	-1
Overflow: UO2CO3	1.000000e+03	3.388574e+00	-1
Overflow: UO2OH+	1.000000e+03	1.137076e+01	-1
Overflow: (UO2)2(OH)2+2	1.000000e+03	5.332618e+00	-1
Overflow: (UO2)3(OH)5+	1.000000e+03	1.662014e+01	-1
Iterations in revise_guesses: 8

Number of infeasible solutions: 0
Number of basis changes: 0

Number of iterations: 9

------------------
End of simulation.
------------------

------------------------------------
Reading input data for simulation 2.
------------------------------------

-------------------------------------------
Beginning of initial solution calculations.
-------------------------------------------

Initial solution 1.	PURE WATER                                                                      

Iterations in revise_guesses: 1

Number of infeasible solutions: 0
Number of basis changes: 0

Number of iterations: 0

-----------------------------------------
Beginning of batch-reaction calculations.
-----------------------------------------

Reaction step 1.

Overflow: CO2	4.794226e+02	2.680719e+00	-1
Overflow: CaCO3	1.000000e+03	3.225283e+00	-1
Overflow: CaHCO3+	1.000000e+03	4.434813e+00	-1
Overflow: HCO3-	1.000000e+03	3.329015e+00	-1
Iterations in revise_guesses: 2

Number of infeasible solutions: 0
Number of basis changes: 0

Number of iterations: 16

------------------
End of simulation.
------------------

------------------------------------
Reading input data for simulation 3.
------------------------------------

-------------------------------------------
Beginning of initial solution calculations.
-------------------------------------------

Initial solution 2.	SEA WATER                                                                       

Iterations in revise_guesses: 2
Ineq had infeasible solution, kode 0, iteration 3

Number of infeasible solutions: 1
Number of basis changes: 0

Number of iterations: 9

-----------------------------------------
Beginning of batch-reaction calculations.
-----------------------------------------

Reaction step 1.

Iterations in revise_guesses: 2

Number of infeasible solutions: 0
Number of basis changes: 0

Number of iterations: 10

------------------
End of simulation.
------------------

------------------------------------
Reading input data for simulation 4.
------------------------------------

-----------------------------------------
Beginning of batch-reaction calculations.
-----------------------------------------

Reaction step 1.

Iterations in revise_guesses: 1

Number of infeasible solutions: 0
Number of basis changes: 0

Number of iterations: 14

------------------
End of simulation.
------------------

------------------------------------
Reading input data for simulation 5.
------------------------------------

-----------------------------------------
Beginning of batch-reaction calculations.
-----------------------------------------

Reaction step 1.

Iterations in revise_guesses: 1

Number of infeasible solutions: 0
Number of basis changes: 0

Number of iterations: 12

------------------
End of simulation.
------------------

------------------------------------
Reading input data for simulation 6.
------------------------------------

-------------------------------------------
Beginning of initial solution calculations.
-------------------------------------------

Initial solution 1.	PURE WATER                                                                      

Iterations in revise_guesses: 1

Number of infeasible solutions: 0
Number of basis changes: 0

Number of iterations: 0

-----------------------------------------
Beginning of batch-reaction calculations.
-----------------------------------------

Reaction step 1.

Overflow: CO2	4.794226e+02	2.680719e+00	-1
Overflow: CaCO3	1.000000e+03	3.225283e+00	-1
Overflow: CaHCO3+	1.000000e+03	4.434813e+00	-1
Overflow: CaSO4	1.995262e+02	2.300000e+00	-1
Overflow: FeCO3	1.000000e+03	4.380000e+00	-1
Overflow: FeHCO3+	1.000000e+03	5.329015e+00	-1
Overflow: FeSO4	1.778279e+02	2.250000e+00	-1
Overflow: HCO3-	1.000000e+03	3.329015e+00	-1
Iterations in revise_guesses: 2

Number of infeasible solutions: 0
Number of basis changes: 0

Number of iterations: 17

Reaction step 2.

Overflow: CO2	4.794226e+02	2.680719e+00	-1
Overflow: CaCO3	1.000000e+03	3.225283e+00	-1
Overflow: CaHCO3+	1.000000e+03	4.434813e+00	-1
Overflow: CaSO4	1.995262e+02	2.300000e+00	-1
Overflow: FeCO3	1.000000e+03	4.380000e+00	-1
Overflow: FeHCO3+	1.000000e+03	5.329015e+00	-1
Overflow: FeSO4	1.778279e+02	2.250000e+00	-1
Overflow: HCO3-	1.000000e+03	3.329015e+00	-1
Iterations in revise_guesses: 2
Ineq had infeasible solution, kode 0, iteration 1

Number of infeasible solutions: 1
Number of basis changes: 0

Number of iterations: 23

Reaction step 3.

Overflow: CO2	4.794226e+02	2.680719e+00	-1
Overflow: CaCO3	1.000000e+03	3.225283e+00	-1
Overflow: CaHCO3+	1.000000e+03	4.434813e+00	-1
Overflow: CaSO4	1.995262e+02	2.300000e+00	-1
Overflow: FeCO3	1.000000e+03	4.380000e+00	-1
Overflow: FeHCO3+	1.000000e+03	5.329015e+00	-1
Overflow: FeSO4	1.778279e+02	2.250000e+00	-1
Overflow: HCO3-	1.000000e+03	3.329015e+00	-1
Iterations in revise_guesses: 2
Ineq had infeasible solution, kode 0, iteration 1

Number of infeasible solutions: 1
Number of basis changes: 0

Number of iterations: 24

Reaction step 4.

Overflow: CO2	4.794226e+02	2.680719e+00	-1
Overflow: CaCO3	1.000000e+03	3.225283e+00	-1
Overflow: CaHCO3+	1.000000e+03	4.434813e+00	-1
Overflow: CaSO4	1.995262e+02	2.300000e+00	-1
Overflow: FeCO3	1.000000e+03	4.380000e+00	-1
Overflow: FeHCO3+	1.000000e+03	5.329015e+00	-1
Overflow: FeSO4	1.778279e+02	2.250000e+00	-1
Overflow: HCO3-	1.000000e+03	3.329015e+00	-1
Iterations in revise_guesses: 2
Ineq had infeasible solution, kode 0, iteration 1

Number of infeasible solutions: 1
Number of basis changes: 0

Number of iterations: 24

Reaction step 5.

Overflow: CO2	4.794226e+02	2.680719e+00	-1
Overflow: CaCO3	1.000000e+03	3.225283e+00	-1
Overflow: CaHCO3+	1.000000e+03	4.434813e+00	-1
Overflow: CaSO4	1.995262e+02	2.300000e+00	-1
Overflow: FeCO3	1.000000e+03	4.380000e+00	-1
Overflow: FeHCO3+	1.000000e+03	5.329015e+00	-1
Overflow: FeSO4	1.778279e+02	2.250000e+00	-1
Overflow: HCO3-	1.000000e+03	3.329015e+00	-1
Iterations in revise_guesses: 2
Ineq had infeasible solution, kode 0, iteration 1

Number of infeasible solutions: 1
Number of basis changes: 0

Number of iterations: 24

------------------
End of simulation.
------------------

------------------------------------
Reading input data for simulation 7.
------------------------------------

-------------------------------------------
Beginning of initial solution calculations.
-------------------------------------------

Initial solution 1.	PURE WATER                                                                      

Iterations in revise_guesses: 1

Number of infeasible solutions: 0
Number of basis changes: 0

Number of iterations: 2

-----------------------------------------
Beginning of batch-reaction calculations.
-----------------------------------------

Reaction step 1.

Overflow: CO2	4.799410e+02	2.681188e+00	-1
Overflow: CaCO3	1.000000e+03	3.225283e+00	-1
Overflow: CaHCO3+	1.000000e+03	4.435047e+00	-1
Overflow: HCO3-	1.000000e+03	3.329250e+00	-1
Overflow: MgCO3	9.542463e+02	2.979660e+00	-1
Overflow: MgHCO3+	1.000000e+03	4.397466e+00	-1
Iterations in revise_guesses: 2

Number of infeasible solutions: 0
Number of basis changes: 0

Number of iterations: 17

------------------
End of simulation.
------------------

------------------------------------
Reading input data for simulation 8.
------------------------------------

-----------------------------------------
Beginning of batch-reaction calculations.
-----------------------------------------

Reaction step 1.

Iterations in revise_guesses: 2

Number of infeasible solutions: 0
Number of basis changes: 0

Number of iterations: 7

Reaction step 2.

Iterations in revise_guesses: 2

Number of infeasible solutions: 0
Number of basis changes: 0

Number of iterations: 7

Reaction step 3.

Iterations in revise_guesses: 2

Number of infeasible solutions: 0
Number of basis changes: 0

Number of iterations: 7

Reaction step 4.

Iterations in revise_guesses: 2

Number of infeasible solutions: 0
Number of basis changes: 0

Number of iterations: 7

------------------
End of simulation.
------------------

------------------------------------
Reading input data for simulation 9.
------------------------------------

-----------------------------------------
Beginning of batch-reaction calculations.
-----------------------------------------

Reaction step 1.

Iterations in revise_guesses: 2

Number of infeasible solutions: 0
Number of basis changes: 0

Number of iterations: 7

Reaction step 2.

Iterations in revise_guesses: 2

Number of infeasible solutions: 0
Number of basis changes: 0

Number of iterations: 7

Reaction step 3.

Iterations in revise_guesses: 2

Number of infeasible solutions: 0
Number of basis changes: 0

Number of iterations: 7

Reaction step 4.

Iterations in revise_guesses: 2

Number of infeasible solutions: 0
Number of basis changes: 0

Number of iterations: 7

------------------
End of simulation.
------------------

-------------------------------------
Reading input data for simulation 10.
-------------------------------------

-----------------------------------------
Beginning of batch-reaction calculations.
-----------------------------------------

Reaction step 1.

Iterations in revise_guesses: 2
Overflow: H2S	5.839267e+01	1.766358e+00	3
Overflow: H2S	5.839267e+01	1.766358e+00	3
Overflow: HS-	1.832117e+02	2.262953e+00	3
Iterations in revise_guesses: 2

Number of infeasible solutions: 0
Number of basis changes: 0

Number of iterations: 13

Reaction step 2.

Iterations in revise_guesses: 2

Number of infeasible solutions: 0
Number of basis changes: 0

Number of iterations: 15

Reaction step 3.

Iterations in revise_guesses: 2

Number of infeasible solutions: 0
Number of basis changes: 0

Number of iterations: 12

Reaction step 4.

Iterations in revise_guesses: 2

Number of infeasible solutions: 0
Number of basis changes: 0

Number of iterations: 10

------------------
End of simulation.
------------------

-------------------------------------
Reading input data for simulation 11.
-------------------------------------

-----------------------------------------
Beginning of batch-reaction calculations.
-----------------------------------------

Reaction step 1.

Overflow: FeSO4	2.119544e+02	2.326242e+00	-1
Iterations in revise_guesses: 2

Number of infeasible solutions: 0
Number of basis changes: 0

Number of iterations: 9

Reaction step 2.

Overflow: FeSO4	2.501746e+02	2.398243e+00	-1
Iterations in revise_guesses: 2

Number of infeasible solutions: 0
Number of basis changes: 0

Number of iterations: 9

Reaction step 3.

Overflow: FeSO4	2.923182e+02	2.465856e+00	-1
Iterations in revise_guesses: 2

Number of infeasible solutions: 0
Number of basis changes: 0

Number of iterations: 9

Reaction step 4.

Overflow: FeSO4	3.384305e+02	2.529469e+00	-1
Iterations in revise_guesses: 2

Number of infeasible solutions: 0
Number of basis changes: 0

Number of iterations: 9

------------------
End of simulation.
------------------

-------------------------------------
Reading input data for simulation 12.
-------------------------------------

-------------------------------------------
Beginning of initial solution calculations.
-------------------------------------------

Initial solution 1.	PURE WATER                                                                      

Iterations in revise_guesses: 1

Number of infeasible solutions: 0
Number of basis changes: 0

Number of iterations: 2

------------------
End of simulation.
------------------

-------------------------------------
Reading input data for simulation 13.
-------------------------------------

-------------------------------------------
Beginning of initial solution calculations.
-------------------------------------------

Initial solution 1.	PURE WATER                                                                      

Iterations in revise_guesses: 1

Number of infeasible solutions: 0
Number of basis changes: 0

Number of iterations: 2

------------------
End of simulation.
------------------

-------------------------------------
Reading input data for simulation 14.
-------------------------------------

-----------------------------------------
Beginning of batch-reaction calculations.
-----------------------------------------

Reaction step 1.

Overflow: Al(OH)2+	1.000000e+03	3.890964e+00	-1
Overflow: Al(OH)3	1.000000e+03	4.058896e+00	-1
Overflow: Al(OH)4-	1.000000e+03	5.334075e+00	-1
Overflow: AlOH+2	9.942527e+01	1.997497e+00	-1
Iterations in revise_guesses: 3

Number of infeasible solutions: 0
Number of basis changes: 0

Number of iterations: 9

------------------
End of simulation.
------------------

-------------------------------------
Reading input data for simulation 15.
-------------------------------------

-----------------------------------------
Beginning of batch-reaction calculations.
-----------------------------------------

Reaction step 1.

Overflow: Al(OH)2+	1.000000e+03	3.890964e+00	-1
Overflow: Al(OH)3	1.000000e+03	4.058896e+00	-1
Overflow: Al(OH)4-	1.000000e+03	5.334075e+00	-1
Overflow: AlOH+2	9.942527e+01	1.997497e+00	-1
Iterations in revise_guesses: 3

Number of infeasible solutions: 0
Number of basis changes: 0

Number of iterations: 13

------------------
End of simulation.
------------------

-------------------------------------
Reading input data for simulation 16.
-------------------------------------

-----------------------------------------
Beginning of batch-reaction calculations.
-----------------------------------------

Reaction step 1.

Overflow: Al(OH)2+	1.000000e+03	3.890964e+00	-1
Overflow: Al(OH)3	1.000000e+03	4.058896e+00	-1
Overflow: Al(OH)4-	1.000000e+03	5.334075e+00	-1
Overflow: AlOH+2	9.942527e+01	1.997497e+00	-1
Iterations in revise_guesses: 3

Number of infeasible solutions: 0
Number of basis changes: 0

Number of iterations: 14

------------------
End of simulation.
------------------

-------------------------------------
Reading input data for simulation 17.
-------------------------------------

-----------------------------------------
Beginning of batch-reaction calculations.
-----------------------------------------

Reaction step 1.

Overflow: Al(OH)2+	1.000000e+03	3.890964e+00	-1
Overflow: Al(OH)3	1.000000e+03	4.058896e+00	-1
Overflow: Al(OH)4-	1.000000e+03	5.334075e+00	-1
Overflow: AlOH+2	9.942527e+01	1.997497e+00	-1
Iterations in revise_guesses: 3

Number of infeasible solutions: 0
Number of basis changes: 0

Number of iterations: 15

------------------
End of simulation.
------------------

-------------------------------------
Reading input data for simulation 18.
-------------------------------------

-----------------------------------------
Beginning of batch-reaction calculations.
-----------------------------------------

Reaction step 1.

Overflow: Al(OH)2+	1.000000e+03	3.890964e+00	-1
Overflow: Al(OH)3	1.000000e+03	4.058896e+00	-1
Overflow: Al(OH)4-	1.000000e+03	5.334075e+00	-1
Overflow: AlOH+2	9.942527e+01	1.997497e+00	-1
Iterations in revise_guesses: 3

Number of infeasible solutions: 0
Number of basis changes: 0

Number of iterations: 13

------------------
End of simulation.
------------------

-------------------------------------
Reading input data for simulation 19.
-------------------------------------

-----------------------------------------
Beginning of batch-reaction calculations.
-----------------------------------------

Reaction step 1.

Overflow: Al(OH)2+	1.000000e+03	3.890964e+00	-1
Overflow: Al(OH)3	1.000000e+03	4.058896e+00	-1
Overflow: Al(OH)4-	1.000000e+03	5.334075e+00	-1
Overflow: AlOH+2	9.942527e+01	1.997497e+00	-1
Iterations in revise_guesses: 3

Number of infeasible solutions: 0
Number of basis changes: 0

Number of iterations: 12

------------------
End of simulation.
------------------

-------------------------------------
Reading input data for simulation 20.
-------------------------------------

-----------------------------------------
Beginning of batch-reaction calculations.
-----------------------------------------

Reaction step 1.

Overflow: Al(OH)2+	1.000000e+03	3.890964e+00	-1
Overflow: Al(OH)3	1.000000e+03	4.058896e+00	-1
Overflow: Al(OH)4-	1.000000e+03	5.334075e+00	-1
Overflow: AlOH+2	9.942527e+01	1.997497e+00	-1
Iterations in revise_guesses: 3
Ineq had infeasible solution, kode 0, iteration 1
Ineq had infeasible solution, kode 0, iteration 2
Ineq had infeasible solution, kode 0, iteration 3
Ineq had infeasible solution, kode 0, iteration 6
Ineq had infeasible solution, kode 0, iteration 7

Number of infeasible solutions: 5
Number of basis changes: 0

Number of iterations: 14

Reaction step 2.

Overflow: Al(OH)2+	1.000000e+03	3.890964e+00	-1
Overflow: Al(OH)3	1.000000e+03	4.058896e+00	-1
Overflow: Al(OH)4-	1.000000e+03	5.334075e+00	-1
Overflow: AlOH+2	9.942527e+01	1.997497e+00	-1
Iterations in revise_guesses: 3
Ineq had infeasible solution, kode 0, iteration 2
Ineq had infeasible solution, kode 0, iteration 4
Ineq had infeasible solution, kode 0, iteration 5
Ineq had infeasible solution, kode 0, iteration 7

Number of infeasible solutions: 4
Number of basis changes: 0

Number of iterations: 11

Reaction step 3.

Overflow: Al(OH)2+	1.000000e+03	3.890964e+00	-1
Overflow: Al(OH)3	1.000000e+03	4.058896e+00	-1
Overflow: Al(OH)4-	1.000000e+03	5.334075e+00	-1
Overflow: AlOH+2	9.942527e+01	1.997497e+00	-1
Iterations in revise_guesses: 3
Ineq had infeasible solution, kode 0, iteration 2
Ineq had infeasible solution, kode 0, iteration 6
Ineq had infeasible solution, kode 0, iteration 7

Number of infeasible solutions: 3
Number of basis changes: 0

Number of iterations: 11

Reaction step 4.

Overflow: Al(OH)2+	1.000000e+03	3.890964e+00	-1
Overflow: Al(OH)3	1.000000e+03	4.058896e+00	-1
Overflow: Al(OH)4-	1.000000e+03	5.334075e+00	-1
Overflow: AlOH+2	9.942527e+01	1.997497e+00	-1
Iterations in revise_guesses: 3
Ineq had infeasible solution, kode 2, iteration 1
Ineq had infeasible solution, kode 2, iteration 3
Ineq had infeasible solution, kode 0, iteration 5
Ineq had infeasible solution, kode 0, iteration 6
Ineq had infeasible solution, kode 0, iteration 7

Number of infeasible solutions: 5
Number of basis changes: 0

Number of iterations: 12

Reaction step 5.

Overflow: Al(OH)2+	1.000000e+03	3.890964e+00	-1
Overflow: Al(OH)3	1.000000e+03	4.058896e+00	-1
Overflow: Al(OH)4-	1.000000e+03	5.334075e+00	-1
Overflow: AlOH+2	9.942527e+01	1.997497e+00	-1
Iterations in revise_guesses: 3
Ineq had infeasible solution, kode 2, iteration 4
Ineq had infeasible solution, kode 2, iteration 6
Ineq had infeasible solution, kode 0, iteration 7
Ineq had infeasible solution, kode 2, iteration 8

Number of infeasible solutions: 4
Number of basis changes: 0

Number of iterations: 13

Reaction step 6.

Overflow: Al(OH)2+	1.000000e+03	3.890964e+00	-1
Overflow: Al(OH)3	1.000000e+03	4.058896e+00	-1
Overflow: Al(OH)4-	1.000000e+03	5.334075e+00	-1
Overflow: AlOH+2	9.942527e+01	1.997497e+00	-1
Iterations in revise_guesses: 3
Ineq had infeasible solution, kode 2, iteration 2
Ineq had infeasible solution, kode 2, iteration 3
Ineq had infeasible solution, kode 0, iteration 4
Ineq had infeasible solution, kode 0, iteration 5
Ineq had infeasible solution, kode 2, iteration 6
Ineq had infeasible solution, kode 0, iteration 8

Number of infeasible solutions: 6
Number of basis changes: 0

Number of iterations: 12

Reaction step 7.

Overflow: Al(OH)2+	1.000000e+03	3.890964e+00	-1
Overflow: Al(OH)3	1.000000e+03	4.058896e+00	-1
Overflow: Al(OH)4-	1.000000e+03	5.334075e+00	-1
Overflow: AlOH+2	9.942527e+01	1.997497e+00	-1
Iterations in revise_guesses: 3
Ineq had infeasible solution, kode 2, iteration 1
Ineq had infeasible solution, kode 0, iteration 4
Ineq had infeasible solution, kode 2, iteration 5
Ineq had infeasible solution, kode 0, iteration 6
Ineq had infeasible solution, kode 2, iteration 7
Ineq had infeasible solution, kode 0, iteration 9
           Muscovite Pure phase has not converged. 	Residual: 1.932450e+00
                    Removing unstable phases, iteration 12.
Removing unstable phases. Iteration 12.

Number of infeasible solutions: 6
Number of basis changes: 0

Number of iterations: 20

Reaction step 8.

Overflow: Al(OH)2+	1.000000e+03	3.890964e+00	-1
Overflow: Al(OH)3	1.000000e+03	4.058896e+00	-1
Overflow: Al(OH)4-	1.000000e+03	5.334075e+00	-1
Overflow: AlOH+2	9.942527e+01	1.997497e+00	-1
Iterations in revise_guesses: 3
Ineq had infeasible solution, kode 2, iteration 1
Ineq had infeasible solution, kode 2, iteration 2
Ineq had infeasible solution, kode 2, iteration 5
Ineq had infeasible solution, kode 2, iteration 6
Ineq had infeasible solution, kode 0, iteration 8
Ineq had infeasible solution, kode 0, iteration 9

Number of infeasible solutions: 6
Number of basis changes: 0

Number of iterations: 12

Reaction step 9.

Overflow: Al(OH)2+	1.000000e+03	3.890964e+00	-1
Overflow: Al(OH)3	1.000000e+03	4.058896e+00	-1
Overflow: Al(OH)4-	1.000000e+03	5.334075e+00	-1
Overflow: AlOH+2	9.942527e+01	1.997497e+00	-1
Iterations in revise_guesses: 3
Ineq had infeasible solution, kode 2, iteration 1
Ineq had infeasible solution, kode 0, iteration 2
Ineq had infeasible solution, kode 0, iteration 4
Ineq had infeasible solution, kode 2, iteration 5
Ineq had infeasible solution, kode 2, iteration 6
Ineq had infeasible solution, kode 2, iteration 7
Ineq had infeasible solution, kode 0, iteration 8
            Gibbsite Pure phase has not converged. 	Residual: 9.759287e-01
                    Removing unstable phases, iteration 12.
Removing unstable phases. Iteration 12.

Number of infeasible solutions: 7
Number of basis changes: 0

Number of iterations: 13

Reaction step 10.

Overflow: Al(OH)2+	1.000000e+03	3.890964e+00	-1
Overflow: Al(OH)3	1.000000e+03	4.058896e+00	-1
Overflow: Al(OH)4-	1.000000e+03	5.334075e+00	-1
Overflow: AlOH+2	9.942527e+01	1.997497e+00	-1
Iterations in revise_guesses: 3
Ineq had infeasible solution, kode 0, iteration 4
Ineq had infeasible solution, kode 2, iteration 5
Ineq had infeasible solution, kode 2, iteration 6
Ineq had infeasible solution, kode 2, iteration 7
Ineq had infeasible solution, kode 0, iteration 9

Number of infeasible solutions: 5
Number of basis changes: 0

Number of iterations: 13

Reaction step 11.

Overflow: Al(OH)2+	1.000000e+03	3.890964e+00	-1
Overflow: Al(OH)3	1.000000e+03	4.058896e+00	-1
Overflow: Al(OH)4-	1.000000e+03	5.334075e+00	-1
Overflow: AlOH+2	9.942527e+01	1.997497e+00	-1
Iterations in revise_guesses: 3
Ineq had infeasible solution, kode 0, iteration 1
Ineq had infeasible solution, kode 0, iteration 2
Ineq had infeasible solution, kode 0, iteration 3
Ineq had infeasible solution, kode 0, iteration 4
Ineq had infeasible solution, kode 0, iteration 5
Ineq had infeasible solution, kode 0, iteration 9

Number of infeasible solutions: 6
Number of basis changes: 0

Number of iterations: 13

Reaction step 12.

Overflow: Al(OH)2+	1.000000e+03	3.890964e+00	-1
Overflow: Al(OH)3	1.000000e+03	4.058896e+00	-1
Overflow: Al(OH)4-	1.000000e+03	5.334075e+00	-1
Overflow: AlOH+2	9.942527e+01	1.997497e+00	-1
Iterations in revise_guesses: 3
Ineq had infeasible solution, kode 0, iteration 1
Ineq had infeasible solution, kode 0, iteration 2
Ineq had infeasible solution, kode 0, iteration 3
Ineq had infeasible solution, kode 0, iteration 4
Ineq had infeasible solution, kode 0, iteration 6
Ineq had infeasible solution, kode 0, iteration 7
Ineq had infeasible solution, kode 0, iteration 9

Number of infeasible solutions: 7
Number of basis changes: 0

Number of iterations: 14

Reaction step 13.

Overflow: Al(OH)2+	1.000000e+03	3.890964e+00	-1
Overflow: Al(OH)3	1.000000e+03	4.058896e+00	-1
Overflow: Al(OH)4-	1.000000e+03	5.334075e+00	-1
Overflow: AlOH+2	9.942527e+01	1.997497e+00	-1
Iterations in revise_guesses: 3
Ineq had infeasible solution, kode 0, iteration 1
Ineq had infeasible solution, kode 0, iteration 3
Ineq had infeasible solution, kode 0, iteration 5
Ineq had infeasible solution, kode 0, iteration 6
Ineq had infeasible solution, kode 2, iteration 7
Ineq had infeasible solution, kode 2, iteration 8

Number of infeasible solutions: 6
Number of basis changes: 0

Number of iterations: 13

Reaction step 14.

Overflow: Al(OH)2+	1.000000e+03	3.890964e+00	-1
Overflow: Al(OH)3	1.000000e+03	4.058896e+00	-1
Overflow: Al(OH)4-	1.000000e+03	5.334075e+00	-1
Overflow: AlOH+2	9.942527e+01	1.997497e+00	-1
Iterations in revise_guesses: 3
Ineq had infeasible solution, kode 2, iteration 1
Ineq had infeasible solution, kode 0, iteration 4
Ineq had infeasible solution, kode 0, iteration 6
Ineq had infeasible solution, kode 2, iteration 8
Ineq had infeasible solution, kode 0, iteration 9

Number of infeasible solutions: 5
Number of basis changes: 0

Number of iterations: 13

Reaction step 15.

Overflow: Al(OH)2+	1.000000e+03	3.890964e+00	-1
Overflow: Al(OH)3	1.000000e+03	4.058896e+00	-1
Overflow: Al(OH)4-	1.000000e+03	5.334075e+00	-1
Overflow: AlOH+2	9.942527e+01	1.997497e+00	-1
Iterations in revise_guesses: 3
Ineq had infeasible solution, kode 2, iteration 1
Ineq had infeasible solution, kode 2, iteration 2
Ineq had infeasible solution, kode 2, iteration 4
Ineq had infeasible solution, kode 2, iteration 5
Ineq had infeasible solution, kode 0, iteration 7
Ineq had infeasible solution, kode 2, iteration 8

Number of infeasible solutions: 6
Number of basis changes: 0

Number of iterations: 13

Reaction step 16.

Overflow: Al(OH)2+	1.000000e+03	3.890964e+00	-1
Overflow: Al(OH)3	1.000000e+03	4.058896e+00	-1
Overflow: Al(OH)4-	1.000000e+03	5.334075e+00	-1
Overflow: AlOH+2	9.942527e+01	1.997497e+00	-1
Iterations in revise_guesses: 3
Ineq had infeasible solution, kode 0, iteration 1
Ineq had infeasible solution, kode 0, iteration 4
Ineq had infeasible solution, kode 0, iteration 5
Ineq had infeasible solution, kode 2, iteration 7

Number of infeasible solutions: 4
Number of basis changes: 0

Number of iterations: 13

Reaction step 17.

Overflow: Al(OH)2+	1.000000e+03	3.890964e+00	-1
Overflow: Al(OH)3	1.000000e+03	4.058896e+00	-1
Overflow: Al(OH)4-	1.000000e+03	5.334075e+00	-1
Overflow: AlOH+2	9.942527e+01	1.997497e+00	-1
Iterations in revise_guesses: 3
Ineq had infeasible solution, kode 0, iteration 1
Ineq had infeasible solution, kode 2, iteration 3
Ineq had infeasible solution, kode 0, iteration 4
Ineq had infeasible solution, kode 0, iteration 7
Ineq had infeasible solution, kode 0, iteration 8
Ineq had infeasible solution, kode 0, iteration 9

Number of infeasible solutions: 6
Number of basis changes: 0

Number of iterations: 14

Reaction step 18.

Overflow: Al(OH)2+	1.000000e+03	3.890964e+00	-1
Overflow: Al(OH)3	1.000000e+03	4.058896e+00	-1
Overflow: Al(OH)4-	1.000000e+03	5.334075e+00	-1
Overflow: AlOH+2	9.942527e+01	1.997497e+00	-1
Iterations in revise_guesses: 3
Ineq had infeasible solution, kode 0, iteration 3
Ineq had infeasible solution, kode 0, iteration 4
Ineq had infeasible solution, kode 2, iteration 5
Ineq had infeasible solution, kode 0, iteration 7
Ineq had infeasible solution, kode 0, iteration 8
Ineq had infeasible solution, kode 0, iteration 9

Number of infeasible solutions: 6
Number of basis changes: 0

Number of iterations: 13

Reaction step 19.

Overflow: Al(OH)2+	1.000000e+03	3.890964e+00	-1
Overflow: Al(OH)3	1.000000e+03	4.058896e+00	-1
Overflow: Al(OH)4-	1.000000e+03	5.334075e+00	-1
Overflow: AlOH+2	9.942527e+01	1.997497e+00	-1
Iterations in revise_guesses: 3
Ineq had infeasible solution, kode 2, iteration 1
Ineq had infeasible solution, kode 0, iteration 2
Ineq had infeasible solution, kode 2, iteration 5
Ineq had infeasible solution, kode 2, iteration 7
Ineq had infeasible solution, kode 0, iteration 8

Number of infeasible solutions: 5
Number of basis changes: 0

Number of iterations: 12

Reaction step 20.

Overflow: Al(OH)2+	1.000000e+03	3.890964e+00	-1
Overflow: Al(OH)3	1.000000e+03	4.058896e+00	-1
Overflow: Al(OH)4-	1.000000e+03	5.334075e+00	-1
Overflow: AlOH+2	9.942527e+01	1.997497e+00	-1
Iterations in revise_guesses: 3
Ineq had infeasible solution, kode 2, iteration 2
Ineq had infeasible solution, kode 0, iteration 3
Ineq had infeasible solution, kode 2, iteration 4
Ineq had infeasible solution, kode 0, iteration 5
Ineq had infeasible solution, kode 2, iteration 6
Ineq had infeasible solution, kode 0, iteration 7
Ineq had infeasible solution, kode 2, iteration 8

Number of infeasible solutions: 7
Number of basis changes: 0

Number of iterations: 12

Reaction step 21.

Overflow: Al(OH)2+	1.000000e+03	3.890964e+00	-1
Overflow: Al(OH)3	1.000000e+03	4.058896e+00	-1
Overflow: Al(OH)4-	1.000000e+03	5.334075e+00	-1
Overflow: AlOH+2	9.942527e+01	1.997497e+00	-1
Iterations in revise_guesses: 3
Ineq had infeasible solution, kode 0, iteration 2
Ineq had infeasible solution, kode 0, iteration 4
Ineq had infeasible solution, kode 0, iteration 5
Ineq had infeasible solution, kode 0, iteration 7
Ineq had infeasible solution, kode 2, iteration 8

Number of infeasible solutions: 5
Number of basis changes: 0

Number of iterations: 13

Reaction step 22.

Overflow: Al(OH)2+	1.000000e+03	3.890964e+00	-1
Overflow: Al(OH)3	1.000000e+03	4.058896e+00	-1
Overflow: Al(OH)4-	1.000000e+03	5.334075e+00	-1
Overflow: AlOH+2	9.942527e+01	1.997497e+00	-1
Iterations in revise_guesses: 3
Ineq had infeasible solution, kode 0, iteration 1
Ineq had infeasible solution, kode 0, iteration 3
Ineq had infeasible solution, kode 2, iteration 5
Ineq had infeasible solution, kode 0, iteration 7
Ineq had infeasible solution, kode 2, iteration 8

Number of infeasible solutions: 5
Number of basis changes: 0

Number of iterations: 13

Reaction step 23.

Overflow: Al(OH)2+	1.000000e+03	3.890964e+00	-1
Overflow: Al(OH)3	1.000000e+03	4.058896e+00	-1
Overflow: Al(OH)4-	1.000000e+03	5.334075e+00	-1
Overflow: AlOH+2	9.942527e+01	1.997497e+00	-1
Iterations in revise_guesses: 3
Ineq had infeasible solution, kode 0, iteration 1
Ineq had infeasible solution, kode 0, iteration 3
Ineq had infeasible solution, kode 0, iteration 4
Ineq had infeasible solution, kode 0, iteration 5
Ineq had infeasible solution, kode 2, iteration 6
Ineq had infeasible solution, kode 2, iteration 8

Number of infeasible solutions: 6
Number of basis changes: 0

Number of iterations: 13

Reaction step 24.

Overflow: Al(OH)2+	1.000000e+03	3.890964e+00	-1
Overflow: Al(OH)3	1.000000e+03	4.058896e+00	-1
Overflow: Al(OH)4-	1.000000e+03	5.334075e+00	-1
Overflow: AlOH+2	9.942527e+01	1.997497e+00	-1
Iterations in revise_guesses: 3
Ineq had infeasible solution, kode 0, iteration 3
Ineq had infeasible solution, kode 2, iteration 4
Ineq had infeasible solution, kode 2, iteration 6
Ineq had infeasible solution, kode 0, iteration 7
Ineq had infeasible solution, kode 0, iteration 8

Number of infeasible solutions: 5
Number of basis changes: 0

Number of iterations: 13

Reaction step 25.

Overflow: Al(OH)2+	1.000000e+03	3.890964e+00	-1
Overflow: Al(OH)3	1.000000e+03	4.058896e+00	-1
Overflow: Al(OH)4-	1.000000e+03	5.334075e+00	-1
Overflow: AlOH+2	9.942527e+01	1.997497e+00	-1
Iterations in revise_guesses: 3
Ineq had infeasible solution, kode 2, iteration 2
Ineq had infeasible solution, kode 0, iteration 8

Number of infeasible solutions: 2
Number of basis changes: 0

Number of iterations: 21

Reaction step 26.

Overflow: Al(OH)2+	1.000000e+03	3.890964e+00	-1
Overflow: Al(OH)3	1.000000e+03	4.058896e+00	-1
Overflow: Al(OH)4-	1.000000e+03	5.334075e+00	-1
Overflow: AlOH+2	9.942527e+01	1.997497e+00	-1
Iterations in revise_guesses: 3
Ineq had infeasible solution, kode 2, iteration 1

Number of infeasible solutions: 1
Number of basis changes: 0

Number of iterations: 13

Reaction step 27.

Overflow: Al(OH)2+	1.000000e+03	3.890964e+00	-1
Overflow: Al(OH)3	1.000000e+03	4.058896e+00	-1
Overflow: Al(OH)4-	1.000000e+03	5.334075e+00	-1
Overflow: AlOH+2	9.942527e+01	1.997497e+00	-1
Iterations in revise_guesses: 3
Ineq had infeasible solution, kode 2, iteration 6
Ineq had infeasible solution, kode 0, iteration 7

Number of infeasible solutions: 2
Number of basis changes: 0

Number of iterations: 13

Reaction step 28.

Overflow: Al(OH)2+	1.000000e+03	3.890964e+00	-1
Overflow: Al(OH)3	1.000000e+03	4.058896e+00	-1
Overflow: Al(OH)4-	1.000000e+03	5.334075e+00	-1
Overflow: AlOH+2	9.942527e+01	1.997497e+00	-1
Iterations in revise_guesses: 3
Ineq had infeasible solution, kode 0, iteration 1
Ineq had infeasible solution, kode 2, iteration 5

Number of infeasible solutions: 2
Number of basis changes: 0

Number of iterations: 13

Reaction step 29.

Overflow: Al(OH)2+	1.000000e+03	3.890964e+00	-1
Overflow: Al(OH)3	1.000000e+03	4.058896e+00	-1
Overflow: Al(OH)4-	1.000000e+03	5.334075e+00	-1
Overflow: AlOH+2	9.942527e+01	1.997497e+00	-1
Iterations in revise_guesses: 3
Ineq had infeasible solution, kode 2, iteration 1

Number of infeasible solutions: 1
Number of basis changes: 0

Number of iterations: 14

Reaction step 30.

Overflow: Al(OH)2+	1.000000e+03	3.890964e+00	-1
Overflow: Al(OH)3	1.000000e+03	4.058896e+00	-1
Overflow: Al(OH)4-	1.000000e+03	5.334075e+00	-1
Overflow: AlOH+2	9.942527e+01	1.997497e+00	-1
Iterations in revise_guesses: 3
Ineq had infeasible solution, kode 0, iteration 6

Number of infeasible solutions: 1
Number of basis changes: 0

Number of iterations: 15

Reaction step 31.

Overflow: Al(OH)2+	1.000000e+03	3.890964e+00	-1
Overflow: Al(OH)3	1.000000e+03	4.058896e+00	-1
Overflow: Al(OH)4-	1.000000e+03	5.334075e+00	-1
Overflow: AlOH+2	9.942527e+01	1.997497e+00	-1
Iterations in revise_guesses: 3
Ineq had infeasible solution, kode 2, iteration 1
Ineq had infeasible solution, kode 0, iteration 3
Ineq had infeasible solution, kode 2, iteration 5

Number of infeasible solutions: 3
Number of basis changes: 0

Number of iterations: 14

Reaction step 32.

Overflow: Al(OH)2+	1.000000e+03	3.890964e+00	-1
Overflow: Al(OH)3	1.000000e+03	4.058896e+00	-1
Overflow: Al(OH)4-	1.000000e+03	5.334075e+00	-1
Overflow: AlOH+2	9.942527e+01	1.997497e+00	-1
Iterations in revise_guesses: 3
Ineq had infeasible solution, kode 2, iteration 3
Ineq had infeasible solution, kode 0, iteration 4
Ineq had infeasible solution, kode 2, iteration 5
Ineq had infeasible solution, kode 2, iteration 6
Ineq had infeasible solution, kode 0, iteration 14

Number of infeasible solutions: 5
Number of basis changes: 0

Number of iterations: 18

Reaction step 33.

Overflow: Al(OH)2+	1.000000e+03	3.890964e+00	-1
Overflow: Al(OH)3	1.000000e+03	4.058896e+00	-1
Overflow: Al(OH)4-	1.000000e+03	5.334075e+00	-1
Overflow: AlOH+2	9.942527e+01	1.997497e+00	-1
Iterations in revise_guesses: 3
Ineq had infeasible solution, kode 0, iteration 2
Ineq had infeasible solution, kode 0, iteration 3

Number of infeasible solutions: 2
Number of basis changes: 0

Number of iterations: 14

Reaction step 34.

Overflow: Al(OH)2+	1.000000e+03	3.890964e+00	-1
Overflow: Al(OH)3	1.000000e+03	4.058896e+00	-1
Overflow: Al(OH)4-	1.000000e+03	5.334075e+00	-1
Overflow: AlOH+2	9.942527e+01	1.997497e+00	-1
Iterations in revise_guesses: 3
Ineq had infeasible solution, kode 2, iteration 1
Ineq had infeasible solution, kode 2, iteration 5
Ineq had infeasible solution, kode 0, iteration 7

Number of infeasible solutions: 3
Number of basis changes: 0

Number of iterations: 14

Reaction step 35.

Overflow: Al(OH)2+	1.000000e+03	3.890964e+00	-1
Overflow: Al(OH)3	1.000000e+03	4.058896e+00	-1
Overflow: Al(OH)4-	1.000000e+03	5.334075e+00	-1
Overflow: AlOH+2	9.942527e+01	1.997497e+00	-1
Iterations in revise_guesses: 3
Ineq had infeasible solution, kode 0, iteration 1
Ineq had infeasible solution, kode 2, iteration 4
Ineq had infeasible solution, kode 0, iteration 8

Number of infeasible solutions: 3
Number of basis changes: 0

Number of iterations: 15

------------------
End of simulation.
------------------

-------------------------------------
Reading input data for simulation 21.
-------------------------------------

-------------------------------------------
Beginning of initial solution calculations.
-------------------------------------------

Initial solution 1.	Seawater

Overflow: Al(OH)4-	1.000000e+03	3.223732e+00	-1
Iterations in revise_guesses: 3

Number of infeasible solutions: 0
Number of basis changes: 0

Number of iterations: 8

------------------------------------------------------
Beginning of initial surface-composition calculations.
------------------------------------------------------

Surface 1.	

Iterations in revise_guesses: 2

Number of infeasible solutions: 0
Number of basis changes: 0

Number of iterations: 7

-----------------------------------------
Beginning of batch-reaction calculations.
-----------------------------------------

Reaction step 1.

Overflow: N2	1.000000e+03	1.283210e+01	-1
Iterations in revise_guesses: 3
Switching bases to N2.	Iteration 1
Iterations in revise_guesses: 1
Ineq had infeasible solution, kode 0, iteration 5
           Aragonite Pure phase has not converged. 	Residual: 3.310423e-01
                    Removing unstable phases, iteration 21.
Removing unstable phases. Iteration 21.
Ineq had infeasible solution, kode 0, iteration 23
Ineq had infeasible solution, kode 2, iteration 24
Ineq had infeasible solution, kode 0, iteration 28
Ineq had infeasible solution, kode 0, iteration 29
Ineq had infeasible solution, kode 0, iteration 30
Ineq had infeasible solution, kode 0, iteration 31
Ineq had infeasible solution, kode 0, iteration 35

Number of infeasible solutions: 8
Number of basis changes: 1

Number of iterations: 40

Reaction step 2.

Iterations in revise_guesses: 2
Ineq had infeasible solution, kode 0, iteration 3
Ineq had infeasible solution, kode 0, iteration 4
Ineq had infeasible solution, kode 2, iteration 6
Ineq had infeasible solution, kode 2, iteration 8
           Aragonite Pure phase has not converged. 	Residual: 3.150090e-01
                    Removing unstable phases, iteration 19.
Removing unstable phases. Iteration 19.
Ineq had infeasible solution, kode 2, iteration 21
Ineq had infeasible solution, kode 2, iteration 22

Number of infeasible solutions: 6
Number of basis changes: 0

Number of iterations: 27

------------------
End of simulation.
------------------

-------------------------------------
Reading input data for simulation 22.
-------------------------------------

-----------
End of run.
-----------

