   Input file: salt_ec
  Output file: salt_ec.out
Database file: ../database/phreeqd.dat

------------------
Reading data base.
------------------

	SOLUTION_MASTER_SPECIES
	SOLUTION_SPECIES
	PHASES
	EXCHANGE_MASTER_SPECIES
	EXCHANGE_SPECIES
	SURFACE_MASTER_SPECIES
	SURFACE_SPECIES
	RATES
	END
------------------------------------
Reading input data for simulation 1.
------------------------------------

	DATABASE ../database/phreeqd.dat
	PRINT
	 warning 0
	SELECTED_OUTPUT
	 file salt_ec.prn
	 reset false
	USER_PUNCH
	 heading conc_Cl EC_20 I
	 start
	 10 punch tot("Cl"), EC * 0.89 * 298 / 293, mu
	 end
	SOLUTION_SPREAD
	 temp 20
	 units mol/L
	K	Cl	HB_EC
	0.067069081	 1 charge	8200
	0.134138162	 1 charge	15700
	0.202548625	 1 charge	22700
	0.270959088	 1 charge	29500
	0.340710932	 1 charge	36500
	0.409121395	 1 charge	43600
	0.478873239	 1 charge	50600
	0.549966465	 1 charge	57600
	0.690811536	 1 charge	71900
	0.83433937	 1 charge	86200
	0.979208585	 1 charge	100000
	1.052984574	 1 charge	108000
	END
WARNING: Could not find element in database, HB_EC.
	Concentration is set to zero.
-------------------------------------------
Beginning of initial solution calculations.
-------------------------------------------

Initial solution 1.	

-----------------------------Solution composition------------------------------

	Elements           Molality       Moles

	Cl                6.972e-02   6.972e-02  Charge balance
	K                 6.972e-02   6.972e-02

----------------------------Description of solution----------------------------

                                       pH  =   7.000    
                                       pe  =   4.000    
       Specific Conductance (uS/cm, 25 oC) = 9083
                        Activity of water  =   0.998
                           Ionic strength  =   6.972e-02
                       Mass of water (kg)  =   1.000e+00
                 Total alkalinity (eq/kg)  =  -3.123e-08
                    Total carbon (mol/kg)  =   0.000e+00
                       Total CO2 (mol/kg)  =   0.000e+00
                      Temperature (deg C)  =  20.000
                  Electrical balance (eq)  =  -5.467e-10
 Percent error, 100*(Cat-|An|)/(Cat+|An|)  =   0.00
                               Iterations  =   5
                                  Total H  = 1.110124e+02
                                  Total O  = 5.550622e+01

----------------------------Distribution of species----------------------------

                                                   Log       Log         Log 
   Species                 Molality    Activity  Molality  Activity     Gamma

   H+                     1.188e-07   1.000e-07    -6.925    -7.000    -0.075
   OH-                    8.574e-08   6.773e-08    -7.067    -7.169    -0.102
   H2O                    5.551e+01   9.976e-01     1.744    -0.001     0.000
Cl               6.972e-02
   Cl-                    6.972e-02   5.521e-02    -1.157    -1.258    -0.101
H(0)             1.410e-25
   H2                     7.052e-26   7.166e-26   -25.152   -25.145     0.007
K                6.972e-02
   K+                     6.972e-02   5.521e-02    -1.157    -1.258    -0.101
   KOH                    1.879e-09   1.910e-09    -8.726    -8.719     0.007
O(0)             0.000e+00
   O2                     0.000e+00   0.000e+00   -43.774   -43.767     0.007

------------------------------Saturation indices-------------------------------

	Phase               SI log IAP  log KT

	H2(g)           -21.95   21.88   43.83  H2
	H2O(g)           -1.64    0.00    1.64  H2O
	O2(g)           -40.91  -43.77   -2.85  O2

Initial solution 2.	

-----------------------------Solution composition------------------------------

	Elements           Molality       Moles

	Cl                1.398e-01   1.398e-01  Charge balance
	K                 1.398e-01   1.398e-01

----------------------------Description of solution----------------------------

                                       pH  =   7.000    
                                       pe  =   4.000    
       Specific Conductance (uS/cm, 25 oC) = 17506
                        Activity of water  =   0.995
                           Ionic strength  =   1.398e-01
                       Mass of water (kg)  =   1.000e+00
                 Total alkalinity (eq/kg)  =  -2.791e-08
                    Total carbon (mol/kg)  =   0.000e+00
                       Total CO2 (mol/kg)  =   0.000e+00
                      Temperature (deg C)  =  20.000
                  Electrical balance (eq)  =  -9.933e-15
 Percent error, 100*(Cat-|An|)/(Cat+|An|)  =   0.00
                               Iterations  =   5
                                  Total H  = 1.110124e+02
                                  Total O  = 5.550622e+01

----------------------------Distribution of species----------------------------

                                                   Log       Log         Log 
   Species                 Molality    Activity  Molality  Activity     Gamma

   H+                     1.230e-07   1.000e-07    -6.910    -7.000    -0.090
   OH-                    9.161e-08   6.757e-08    -7.038    -7.170    -0.132
   H2O                    5.551e+01   9.952e-01     1.744    -0.002     0.000
Cl               1.398e-01
   Cl-                    1.398e-01   1.036e-01    -0.854    -0.985    -0.130
H(0)             1.388e-25
   H2                     6.939e-26   7.166e-26   -25.159   -25.145     0.014
K                1.398e-01
   K+                     1.398e-01   1.036e-01    -0.854    -0.985    -0.130
   KOH                    3.463e-09   3.576e-09    -8.461    -8.447     0.014
O(0)             0.000e+00
   O2                     0.000e+00   0.000e+00   -43.783   -43.769     0.014

------------------------------Saturation indices-------------------------------

	Phase               SI log IAP  log KT

	H2(g)           -21.95   21.88   43.83  H2
	H2O(g)           -1.64    0.00    1.64  H2O
	O2(g)           -40.91  -43.77   -2.85  O2

Initial solution 3.	

-----------------------------Solution composition------------------------------

	Elements           Molality       Moles

	Cl                2.117e-01   2.117e-01  Charge balance
	K                 2.117e-01   2.117e-01

----------------------------Description of solution----------------------------

                                       pH  =   7.000    
                                       pe  =   4.000    
       Specific Conductance (uS/cm, 25 oC) = 25826
                        Activity of water  =   0.993
                           Ionic strength  =   2.117e-01
                       Mass of water (kg)  =   1.000e+00
                 Total alkalinity (eq/kg)  =  -2.489e-08
                    Total carbon (mol/kg)  =   0.000e+00
                       Total CO2 (mol/kg)  =   0.000e+00
                      Temperature (deg C)  =  20.000
                  Electrical balance (eq)  =  -1.585e-10
 Percent error, 100*(Cat-|An|)/(Cat+|An|)  =   0.00
                               Iterations  =   5
                                  Total H  = 1.110124e+02
                                  Total O  = 5.550622e+01

----------------------------Distribution of species----------------------------

                                                   Log       Log         Log 
   Species                 Molality    Activity  Molality  Activity     Gamma

   H+                     1.255e-07   1.000e-07    -6.901    -7.000    -0.099
   OH-                    9.568e-08   6.740e-08    -7.019    -7.171    -0.152
   H2O                    5.551e+01   9.928e-01     1.744    -0.003     0.000
Cl               2.117e-01
   Cl-                    2.117e-01   1.502e-01    -0.674    -0.823    -0.149
H(0)             1.365e-25
   H2                     6.825e-26   7.166e-26   -25.166   -25.145     0.021
K                2.117e-01
   K+                     2.117e-01   1.502e-01    -0.674    -0.823    -0.149
   KOH                    4.926e-09   5.172e-09    -8.308    -8.286     0.021
O(0)             0.000e+00
   O2                     0.000e+00   0.000e+00   -43.793   -43.771     0.021

------------------------------Saturation indices-------------------------------

	Phase               SI log IAP  log KT

	H2(g)           -21.95   21.88   43.83  H2
	H2O(g)           -1.64    0.00    1.64  H2O
	O2(g)           -40.92  -43.77   -2.85  O2

Initial solution 4.	

-----------------------------Solution composition------------------------------

	Elements           Molality       Moles

	Cl                2.840e-01   2.840e-01  Charge balance
	K                 2.840e-01   2.840e-01

----------------------------Description of solution----------------------------

                                       pH  =   7.000    
                                       pe  =   4.000    
       Specific Conductance (uS/cm, 25 oC) = 33989
                        Activity of water  =   0.990
                           Ionic strength  =   2.840e-01
                       Mass of water (kg)  =   1.000e+00
                 Total alkalinity (eq/kg)  =  -2.220e-08
                    Total carbon (mol/kg)  =   0.000e+00
                       Total CO2 (mol/kg)  =   0.000e+00
                      Temperature (deg C)  =  20.000
                  Electrical balance (eq)  =  -3.861e-14
 Percent error, 100*(Cat-|An|)/(Cat+|An|)  =   0.00
                               Iterations  =   6
                                  Total H  = 1.110124e+02
                                  Total O  = 5.550622e+01

----------------------------Distribution of species----------------------------

                                                   Log       Log         Log 
   Species                 Molality    Activity  Molality  Activity     Gamma

   H+                     1.273e-07   1.000e-07    -6.895    -7.000    -0.105
   OH-                    9.879e-08   6.724e-08    -7.005    -7.172    -0.167
   H2O                    5.551e+01   9.903e-01     1.744    -0.004     0.000
Cl               2.840e-01
   Cl-                    2.840e-01   1.952e-01    -0.547    -0.709    -0.163
H(0)             1.342e-25
   H2                     6.712e-26   7.166e-26   -25.173   -25.145     0.028
K                2.840e-01
   K+                     2.840e-01   1.952e-01    -0.547    -0.709    -0.163
   KOH                    6.279e-09   6.704e-09    -8.202    -8.174     0.028
O(0)             0.000e+00
   O2                     0.000e+00   0.000e+00   -43.802   -43.774     0.028

------------------------------Saturation indices-------------------------------

	Phase               SI log IAP  log KT

	H2(g)           -21.95   21.88   43.83  H2
	H2O(g)           -1.64    0.00    1.64  H2O
	O2(g)           -40.92  -43.77   -2.85  O2

Initial solution 5.	

-----------------------------Solution composition------------------------------

	Elements           Molality       Moles

	Cl                3.582e-01   3.582e-01  Charge balance
	K                 3.582e-01   3.582e-01

----------------------------Description of solution----------------------------

                                       pH  =   7.000    
                                       pe  =   4.000    
       Specific Conductance (uS/cm, 25 oC) = 42211
                        Activity of water  =   0.988
                           Ionic strength  =   3.582e-01
                       Mass of water (kg)  =   1.000e+00
                 Total alkalinity (eq/kg)  =  -1.973e-08
                    Total carbon (mol/kg)  =   0.000e+00
                       Total CO2 (mol/kg)  =   0.000e+00
                      Temperature (deg C)  =  20.000
                  Electrical balance (eq)  =  -1.510e-10
 Percent error, 100*(Cat-|An|)/(Cat+|An|)  =   0.00
                               Iterations  =   6
                                  Total H  = 1.110124e+02
                                  Total O  = 5.550622e+01

----------------------------Distribution of species----------------------------

                                                   Log       Log         Log 
   Species                 Molality    Activity  Molality  Activity     Gamma

   H+                     1.286e-07   1.000e-07    -6.891    -7.000    -0.109
   OH-                    1.013e-07   6.706e-08    -6.994    -7.174    -0.179
   H2O                    5.551e+01   9.878e-01     1.744    -0.005     0.000
Cl               3.582e-01
   Cl-                    3.582e-01   2.400e-01    -0.446    -0.620    -0.174
H(0)             1.320e-25
   H2                     6.598e-26   7.166e-26   -25.181   -25.145     0.036
K                3.582e-01
   K+                     3.582e-01   2.400e-01    -0.446    -0.620    -0.174
   KOH                    7.569e-09   8.220e-09    -8.121    -8.085     0.036
O(0)             0.000e+00
   O2                     0.000e+00   0.000e+00   -43.812   -43.776     0.036

------------------------------Saturation indices-------------------------------

	Phase               SI log IAP  log KT

	H2(g)           -21.95   21.88   43.83  H2
	H2O(g)           -1.64   -0.01    1.64  H2O
	O2(g)           -40.92  -43.78   -2.85  O2

Initial solution 6.	

-----------------------------Solution composition------------------------------

	Elements           Molality       Moles

	Cl                4.313e-01   4.313e-01  Charge balance
	K                 4.313e-01   4.313e-01

----------------------------Description of solution----------------------------

                                       pH  =   7.000    
                                       pe  =   4.000    
       Specific Conductance (uS/cm, 25 oC) = 49026
                        Activity of water  =   0.985
                           Ionic strength  =   4.313e-01
                       Mass of water (kg)  =   1.000e+00
                 Total alkalinity (eq/kg)  =  -1.752e-08
                    Total carbon (mol/kg)  =   0.000e+00
                       Total CO2 (mol/kg)  =   0.000e+00
                      Temperature (deg C)  =  20.000
                  Electrical balance (eq)  =  -1.538e-15
 Percent error, 100*(Cat-|An|)/(Cat+|An|)  =   0.00
                               Iterations  =   7
                                  Total H  = 1.110124e+02
                                  Total O  = 5.550622e+01

----------------------------Distribution of species----------------------------

                                                   Log       Log         Log 
   Species                 Molality    Activity  Molality  Activity     Gamma

   H+                     1.297e-07   1.000e-07    -6.887    -7.000    -0.113
   OH-                    1.034e-07   6.690e-08    -6.985    -7.175    -0.189
   H2O                    5.551e+01   9.853e-01     1.744    -0.006     0.000
Cl               4.313e-01
   Cl-                    4.313e-01   2.831e-01    -0.365    -0.548    -0.183
H(0)             1.298e-25
   H2                     6.488e-26   7.166e-26   -25.188   -25.145     0.043
K                4.313e-01
   K+                     4.313e-01   2.831e-01    -0.365    -0.548    -0.183
   KOH                    8.759e-09   9.674e-09    -8.058    -8.014     0.043
O(0)             0.000e+00
   O2                     0.000e+00   0.000e+00   -43.821   -43.778     0.043

------------------------------Saturation indices-------------------------------

	Phase               SI log IAP  log KT

	H2(g)           -21.95   21.88   43.83  H2
	H2O(g)           -1.64   -0.01    1.64  H2O
	O2(g)           -40.92  -43.78   -2.85  O2

Initial solution 7.	

-----------------------------Solution composition------------------------------

	Elements           Molality       Moles

	Cl                5.063e-01   5.063e-01  Charge balance
	K                 5.063e-01   5.063e-01

----------------------------Description of solution----------------------------

                                       pH  =   7.000    
                                       pe  =   4.000    
       Specific Conductance (uS/cm, 25 oC) = 55544
                        Activity of water  =   0.983
                           Ionic strength  =   5.063e-01
                       Mass of water (kg)  =   1.000e+00
                 Total alkalinity (eq/kg)  =  -1.547e-08
                    Total carbon (mol/kg)  =   0.000e+00
                       Total CO2 (mol/kg)  =   0.000e+00
                      Temperature (deg C)  =  20.000
                  Electrical balance (eq)  =  -3.629e-12
 Percent error, 100*(Cat-|An|)/(Cat+|An|)  =   0.00
                               Iterations  =   7
                                  Total H  = 1.110124e+02
                                  Total O  = 5.550622e+01

----------------------------Distribution of species----------------------------

                                                   Log       Log         Log 
   Species                 Molality    Activity  Molality  Activity     Gamma

   H+                     1.306e-07   1.000e-07    -6.884    -7.000    -0.116
   OH-                    1.053e-07   6.672e-08    -6.978    -7.176    -0.198
   H2O                    5.551e+01   9.828e-01     1.744    -0.008     0.000
Cl               5.063e-01
   Cl-                    5.063e-01   3.266e-01    -0.296    -0.486    -0.190
H(0)             1.275e-25
   H2                     6.377e-26   7.166e-26   -25.195   -25.145     0.051
K                5.063e-01
   K+                     5.063e-01   3.266e-01    -0.296    -0.486    -0.190
   KOH                    9.906e-09   1.113e-08    -8.004    -7.953     0.051
O(0)             0.000e+00
   O2                     0.000e+00   0.000e+00   -43.831   -43.780     0.051

------------------------------Saturation indices-------------------------------

	Phase               SI log IAP  log KT

	H2(g)           -21.95   21.88   43.83  H2
	H2O(g)           -1.65   -0.01    1.64  H2O
	O2(g)           -40.93  -43.78   -2.85  O2

Initial solution 8.	

-----------------------------Solution composition------------------------------

	Elements           Molality       Moles

	Cl                5.832e-01   5.832e-01  Charge balance
	K                 5.832e-01   5.832e-01

----------------------------Description of solution----------------------------

                                       pH  =   7.000    
                                       pe  =   4.000    
       Specific Conductance (uS/cm, 25 oC) = 61814
                        Activity of water  =   0.980
                           Ionic strength  =   5.832e-01
                       Mass of water (kg)  =   1.000e+00
                 Total alkalinity (eq/kg)  =  -1.355e-08
                    Total carbon (mol/kg)  =   0.000e+00
                       Total CO2 (mol/kg)  =   0.000e+00
                      Temperature (deg C)  =  20.000
                  Electrical balance (eq)  =  -1.356e-09
 Percent error, 100*(Cat-|An|)/(Cat+|An|)  =   0.00
                               Iterations  =   7
                                  Total H  = 1.110124e+02
                                  Total O  = 5.550622e+01

----------------------------Distribution of species----------------------------

                                                   Log       Log         Log 
   Species                 Molality    Activity  Molality  Activity     Gamma

   H+                     1.314e-07   1.000e-07    -6.881    -7.000    -0.119
   OH-                    1.069e-07   6.655e-08    -6.971    -7.177    -0.206
   H2O                    5.551e+01   9.802e-01     1.744    -0.009     0.000
Cl               5.832e-01
   Cl-                    5.832e-01   3.706e-01    -0.234    -0.431    -0.197
H(0)             1.253e-25
   H2                     6.265e-26   7.166e-26   -25.203   -25.145     0.058
K                5.832e-01
   K+                     5.832e-01   3.706e-01    -0.234    -0.431    -0.197
   KOH                    1.101e-08   1.259e-08    -7.958    -7.900     0.058
O(0)             0.000e+00
   O2                     0.000e+00   0.000e+00   -43.841   -43.783     0.058

------------------------------Saturation indices-------------------------------

	Phase               SI log IAP  log KT

	H2(g)           -21.95   21.88   43.83  H2
	H2O(g)           -1.65   -0.01    1.64  H2O
	O2(g)           -40.93  -43.78   -2.85  O2

Initial solution 9.	

-----------------------------Solution composition------------------------------

	Elements           Molality       Moles

	Cl                7.368e-01   7.368e-01  Charge balance
	K                 7.368e-01   7.368e-01

----------------------------Description of solution----------------------------

                                       pH  =   7.000    
                                       pe  =   4.000    
       Specific Conductance (uS/cm, 25 oC) = 73272
                        Activity of water  =   0.975
                           Ionic strength  =   7.368e-01
                       Mass of water (kg)  =   1.000e+00
                 Total alkalinity (eq/kg)  =  -1.017e-08
                    Total carbon (mol/kg)  =   0.000e+00
                       Total CO2 (mol/kg)  =   0.000e+00
                      Temperature (deg C)  =  20.000
                  Electrical balance (eq)  =  -9.906e-12
 Percent error, 100*(Cat-|An|)/(Cat+|An|)  =   0.00
                               Iterations  =   8
                                  Total H  = 1.110124e+02
                                  Total O  = 5.550622e+01

----------------------------Distribution of species----------------------------

                                                   Log       Log         Log 
   Species                 Molality    Activity  Molality  Activity     Gamma

   H+                     1.327e-07   1.000e-07    -6.877    -7.000    -0.123
   OH-                    1.095e-07   6.619e-08    -6.961    -7.179    -0.219
   H2O                    5.551e+01   9.749e-01     1.744    -0.011     0.000
Cl               7.368e-01
   Cl-                    7.368e-01   4.570e-01    -0.133    -0.340    -0.207
H(0)             1.209e-25
   H2                     6.047e-26   7.166e-26   -25.218   -25.145     0.074
K                7.368e-01
   K+                     7.368e-01   4.570e-01    -0.133    -0.340    -0.207
   KOH                    1.304e-08   1.545e-08    -7.885    -7.811     0.074
O(0)             0.000e+00
   O2                     0.000e+00   0.000e+00   -43.861   -43.787     0.074

------------------------------Saturation indices-------------------------------

	Phase               SI log IAP  log KT

	H2(g)           -21.95   21.88   43.83  H2
	H2O(g)           -1.65   -0.01    1.64  H2O
	O2(g)           -40.93  -43.79   -2.85  O2

Initial solution 10.	

-----------------------------Solution composition------------------------------

	Elements           Molality       Moles

	Cl                8.953e-01   8.953e-01  Charge balance
	K                 8.953e-01   8.953e-01

----------------------------Description of solution----------------------------

                                       pH  =   7.000    
                                       pe  =   4.000    
       Specific Conductance (uS/cm, 25 oC) = 83833
                        Activity of water  =   0.970
                           Ionic strength  =   8.953e-01
                       Mass of water (kg)  =   1.000e+00
                 Total alkalinity (eq/kg)  =  -7.204e-09
                    Total carbon (mol/kg)  =   0.000e+00
                       Total CO2 (mol/kg)  =   0.000e+00
                      Temperature (deg C)  =  20.000
                  Electrical balance (eq)  =  -2.634e-12
 Percent error, 100*(Cat-|An|)/(Cat+|An|)  =   0.00
                               Iterations  =   9
                                  Total H  = 1.110124e+02
                                  Total O  = 5.550622e+01

----------------------------Distribution of species----------------------------

                                                   Log       Log         Log 
   Species                 Molality    Activity  Molality  Activity     Gamma

   H+                     1.337e-07   1.000e-07    -6.874    -7.000    -0.126
   OH-                    1.116e-07   6.583e-08    -6.952    -7.182    -0.229
   H2O                    5.551e+01   9.696e-01     1.744    -0.013     0.000
Cl               8.953e-01
   Cl-                    8.953e-01   5.447e-01    -0.048    -0.264    -0.216
H(0)             1.166e-25
   H2                     5.831e-26   7.166e-26   -25.234   -25.145     0.090
K                8.953e-01
   K+                     8.953e-01   5.447e-01    -0.048    -0.264    -0.216
   KOH                    1.490e-08   1.831e-08    -7.827    -7.737     0.090
O(0)             0.000e+00
   O2                     0.000e+00   0.000e+00   -43.882   -43.792     0.090

------------------------------Saturation indices-------------------------------

	Phase               SI log IAP  log KT

	H2(g)           -21.95   21.88   43.83  H2
	H2O(g)           -1.65   -0.01    1.64  H2O
	O2(g)           -40.94  -43.79   -2.85  O2

Initial solution 11.	

-----------------------------Solution composition------------------------------

	Elements           Molality       Moles

	Cl                1.057e+00   1.057e+00  Charge balance
	K                 1.057e+00   1.057e+00

----------------------------Description of solution----------------------------

                                       pH  =   7.000    
                                       pe  =   4.000    
       Specific Conductance (uS/cm, 25 oC) = 93545
                        Activity of water  =   0.964
                           Ionic strength  =   1.057e+00
                       Mass of water (kg)  =   1.000e+00
                 Total alkalinity (eq/kg)  =  -4.624e-09
                    Total carbon (mol/kg)  =   0.000e+00
                       Total CO2 (mol/kg)  =   0.000e+00
                      Temperature (deg C)  =  20.000
                  Electrical balance (eq)  =  -3.995e-12
 Percent error, 100*(Cat-|An|)/(Cat+|An|)  =   0.00
                               Iterations  =   9
                                  Total H  = 1.110124e+02
                                  Total O  = 5.550622e+01

----------------------------Distribution of species----------------------------

                                                   Log       Log         Log 
   Species                 Molality    Activity  Molality  Activity     Gamma

   H+                     1.345e-07   1.000e-07    -6.871    -7.000    -0.129
   OH-                    1.133e-07   6.545e-08    -6.946    -7.184    -0.238
   H2O                    5.551e+01   9.641e-01     1.744    -0.016     0.000
Cl               1.057e+00
   Cl-                    1.057e+00   6.333e-01     0.024    -0.198    -0.223
H(0)             1.123e-25
   H2                     5.617e-26   7.166e-26   -25.250   -25.145     0.106
K                1.057e+00
   K+                     1.057e+00   6.333e-01     0.024    -0.198    -0.223
   KOH                    1.660e-08   2.117e-08    -7.780    -7.674     0.106
O(0)             0.000e+00
   O2                     0.000e+00   0.000e+00   -43.903   -43.797     0.106

------------------------------Saturation indices-------------------------------

	Phase               SI log IAP  log KT

	H2(g)           -21.95   21.88   43.83  H2
	H2O(g)           -1.65   -0.02    1.64  H2O
	O2(g)           -40.94  -43.80   -2.85  O2

Initial solution 12.	

-----------------------------Solution composition------------------------------

	Elements           Molality       Moles

	Cl                1.140e+00   1.140e+00  Charge balance
	K                 1.140e+00   1.140e+00

----------------------------Description of solution----------------------------

                                       pH  =   7.000    
                                       pe  =   4.000    
       Specific Conductance (uS/cm, 25 oC) = 98176
                        Activity of water  =   0.961
                           Ionic strength  =   1.140e+00
                       Mass of water (kg)  =   1.000e+00
                 Total alkalinity (eq/kg)  =  -3.448e-09
                    Total carbon (mol/kg)  =   0.000e+00
                       Total CO2 (mol/kg)  =   0.000e+00
                      Temperature (deg C)  =  20.000
                  Electrical balance (eq)  =  -1.166e-12
 Percent error, 100*(Cat-|An|)/(Cat+|An|)  =   0.00
                               Iterations  =   9
                                  Total H  = 1.110124e+02
                                  Total O  = 5.550622e+01

----------------------------Distribution of species----------------------------

                                                   Log       Log         Log 
   Species                 Molality    Activity  Molality  Activity     Gamma

   H+                     1.349e-07   1.000e-07    -6.870    -7.000    -0.130
   OH-                    1.141e-07   6.526e-08    -6.943    -7.185    -0.243
   H2O                    5.551e+01   9.612e-01     1.744    -0.017     0.000
Cl               1.140e+00
   Cl-                    1.140e+00   6.786e-01     0.057    -0.168    -0.225
H(0)             1.102e-25
   H2                     5.511e-26   7.166e-26   -25.259   -25.145     0.114
K                1.140e+00
   K+                     1.140e+00   6.786e-01     0.057    -0.168    -0.225
   KOH                    1.739e-08   2.262e-08    -7.760    -7.646     0.114
O(0)             0.000e+00
   O2                     0.000e+00   0.000e+00   -43.914   -43.799     0.114

------------------------------Saturation indices-------------------------------

	Phase               SI log IAP  log KT

	H2(g)           -21.95   21.88   43.83  H2
	H2O(g)           -1.65   -0.02    1.64  H2O
	O2(g)           -40.95  -43.80   -2.85  O2

------------------
End of simulation.
------------------

------------------------------------
Reading input data for simulation 2.
------------------------------------

	SOLUTION_SPREAD
	 temp 20
	 units mol/L
	Na	Cl	HB_EC
	0.085557837	 1 charge	8200
	0.172826831	 1 charge	16000
	0.258384668	 1 charge	23200
	0.345653662	 1 charge	30200
	0.434633812	 1 charge	37100
	0.523613963	 1 charge	44000
	0.612594114	 1 charge	50700
	0.684462697	 1 charge	56000
	0.865845311	 1 charge	68900
	1.031827515	 1 charge	80000
	1.368925394	 1 charge	101000
	1.676933607	 1 charge	118000
	END
WARNING: Could not find element in database, HB_EC.
	Concentration is set to zero.
-------------------------------------------
Beginning of initial solution calculations.
-------------------------------------------

Initial solution 13.	

-----------------------------Solution composition------------------------------

	Elements           Molality       Moles

	Cl                8.888e-02   8.888e-02  Charge balance
	Na                8.888e-02   8.888e-02

----------------------------Description of solution----------------------------

                                       pH  =   7.000    
                                       pe  =   4.000    
       Specific Conductance (uS/cm, 25 oC) = 9672
                        Activity of water  =   0.997
                           Ionic strength  =   8.888e-02
                       Mass of water (kg)  =   1.000e+00
                 Total alkalinity (eq/kg)  =  -2.808e-08
                    Total carbon (mol/kg)  =   0.000e+00
                       Total CO2 (mol/kg)  =   0.000e+00
                      Temperature (deg C)  =  20.000
                  Electrical balance (eq)  =  -6.468e-12
 Percent error, 100*(Cat-|An|)/(Cat+|An|)  =   0.00
                               Iterations  =   5
                                  Total H  = 1.110124e+02
                                  Total O  = 5.550622e+01

----------------------------Distribution of species----------------------------

                                                   Log       Log         Log 
   Species                 Molality    Activity  Molality  Activity     Gamma

   H+                     1.203e-07   1.000e-07    -6.920    -7.000    -0.080
   OH-                    8.765e-08   6.769e-08    -7.057    -7.169    -0.112
   H2O                    5.551e+01   9.970e-01     1.744    -0.001     0.000
Cl               8.888e-02
   Cl-                    8.888e-02   6.885e-02    -1.051    -1.162    -0.111
H(0)             1.404e-25
   H2                     7.020e-26   7.166e-26   -25.154   -25.145     0.009
Na               8.888e-02
   Na+                    8.888e-02   7.034e-02    -1.051    -1.153    -0.102
   NaOH                   4.539e-09   4.633e-09    -8.343    -8.334     0.009
O(0)             0.000e+00
   O2                     0.000e+00   0.000e+00   -43.777   -43.768     0.009

------------------------------Saturation indices-------------------------------

	Phase               SI log IAP  log KT

	H2(g)           -21.95   21.88   43.83  H2
	H2O(g)           -1.64    0.00    1.64  H2O
	Halite           -3.89   -2.31    1.57  NaCl
	O2(g)           -40.91  -43.77   -2.85  O2

Initial solution 14.	

-----------------------------Solution composition------------------------------

	Elements           Molality       Moles

	Cl                1.799e-01   1.799e-01  Charge balance
	Na                1.799e-01   1.799e-01

----------------------------Description of solution----------------------------

                                       pH  =   7.000    
                                       pe  =   4.000    
       Specific Conductance (uS/cm, 25 oC) = 18852
                        Activity of water  =   0.994
                           Ionic strength  =   1.799e-01
                       Mass of water (kg)  =   1.000e+00
                 Total alkalinity (eq/kg)  =  -2.196e-08
                    Total carbon (mol/kg)  =   0.000e+00
                       Total CO2 (mol/kg)  =   0.000e+00
                      Temperature (deg C)  =  20.000
                  Electrical balance (eq)  =  -2.652e-12
 Percent error, 100*(Cat-|An|)/(Cat+|An|)  =   0.00
                               Iterations  =   5
                                  Total H  = 1.110124e+02
                                  Total O  = 5.550622e+01

----------------------------Distribution of species----------------------------

                                                   Log       Log         Log 
   Species                 Molality    Activity  Molality  Activity     Gamma

   H+                     1.245e-07   1.000e-07    -6.905    -7.000    -0.095
   OH-                    9.404e-08   6.748e-08    -7.027    -7.171    -0.144
   H2O                    5.551e+01   9.939e-01     1.744    -0.003     0.000
Cl               1.799e-01
   Cl-                    1.799e-01   1.299e-01    -0.745    -0.886    -0.141
H(0)             1.375e-25
   H2                     6.875e-26   7.166e-26   -25.163   -25.145     0.018
Na               1.799e-01
   Na+                    1.799e-01   1.352e-01    -0.745    -0.869    -0.124
   NaOH                   8.515e-09   8.875e-09    -8.070    -8.052     0.018
O(0)             0.000e+00
   O2                     0.000e+00   0.000e+00   -43.788   -43.770     0.018

------------------------------Saturation indices-------------------------------

	Phase               SI log IAP  log KT

	H2(g)           -21.95   21.88   43.83  H2
	H2O(g)           -1.64    0.00    1.64  H2O
	Halite           -3.33   -1.76    1.57  NaCl
	O2(g)           -40.92  -43.77   -2.85  O2

Initial solution 15.	

-----------------------------Solution composition------------------------------

	Elements           Molality       Moles

	Cl                2.695e-01   2.695e-01  Charge balance
	Na                2.695e-01   2.695e-01

----------------------------Description of solution----------------------------

                                       pH  =   7.000    
                                       pe  =   4.000    
       Specific Conductance (uS/cm, 25 oC) = 27626
                        Activity of water  =   0.991
                           Ionic strength  =   2.695e-01
                       Mass of water (kg)  =   1.000e+00
                 Total alkalinity (eq/kg)  =  -1.660e-08
                    Total carbon (mol/kg)  =   0.000e+00
                       Total CO2 (mol/kg)  =   0.000e+00
                      Temperature (deg C)  =  20.000
                  Electrical balance (eq)  =  -7.689e-15
 Percent error, 100*(Cat-|An|)/(Cat+|An|)  =   0.00
                               Iterations  =   6
                                  Total H  = 1.110124e+02
                                  Total O  = 5.550622e+01

----------------------------Distribution of species----------------------------

                                                   Log       Log         Log 
   Species                 Molality    Activity  Molality  Activity     Gamma

   H+                     1.270e-07   1.000e-07    -6.896    -7.000    -0.104
   OH-                    9.822e-08   6.727e-08    -7.008    -7.172    -0.164
   H2O                    5.551e+01   9.908e-01     1.744    -0.004     0.000
Cl               2.695e-01
   Cl-                    2.695e-01   1.863e-01    -0.569    -0.730    -0.160
H(0)             1.347e-25
   H2                     6.734e-26   7.166e-26   -25.172   -25.145     0.027
Na               2.695e-01
   Na+                    2.695e-01   1.971e-01    -0.569    -0.705    -0.136
   NaOH                   1.213e-08   1.291e-08    -7.916    -7.889     0.027
O(0)             0.000e+00
   O2                     0.000e+00   0.000e+00   -43.800   -43.773     0.027

------------------------------Saturation indices-------------------------------

	Phase               SI log IAP  log KT

	H2(g)           -21.95   21.88   43.83  H2
	H2O(g)           -1.64    0.00    1.64  H2O
	Halite           -3.01   -1.43    1.57  NaCl
	O2(g)           -40.92  -43.77   -2.85  O2

Initial solution 16.	

-----------------------------Solution composition------------------------------

	Elements           Molality       Moles

	Cl                3.613e-01   3.613e-01  Charge balance
	Na                3.613e-01   3.613e-01

----------------------------Description of solution----------------------------

                                       pH  =   7.000    
                                       pe  =   4.000    
       Specific Conductance (uS/cm, 25 oC) = 36455
                        Activity of water  =   0.988
                           Ionic strength  =   3.613e-01
                       Mass of water (kg)  =   1.000e+00
                 Total alkalinity (eq/kg)  =  -1.163e-08
                    Total carbon (mol/kg)  =   0.000e+00
                       Total CO2 (mol/kg)  =   0.000e+00
                      Temperature (deg C)  =  20.000
                  Electrical balance (eq)  =  -3.151e-10
 Percent error, 100*(Cat-|An|)/(Cat+|An|)  =   0.00
                               Iterations  =   6
                                  Total H  = 1.110124e+02
                                  Total O  = 5.550622e+01

----------------------------Distribution of species----------------------------

                                                   Log       Log         Log 
   Species                 Molality    Activity  Molality  Activity     Gamma

   H+                     1.287e-07   1.000e-07    -6.890    -7.000    -0.110
   OH-                    1.014e-07   6.706e-08    -6.994    -7.174    -0.180
   H2O                    5.551e+01   9.877e-01     1.744    -0.005     0.000
Cl               3.613e-01
   Cl-                    3.613e-01   2.419e-01    -0.442    -0.616    -0.174
H(0)             1.319e-25
   H2                     6.594e-26   7.166e-26   -25.181   -25.145     0.036
Na               3.613e-01
   Na+                    3.613e-01   2.601e-01    -0.442    -0.585    -0.143
   NaOH                   1.562e-08   1.697e-08    -7.806    -7.770     0.036
O(0)             0.000e+00
   O2                     0.000e+00   0.000e+00   -43.812   -43.776     0.036

------------------------------Saturation indices-------------------------------

	Phase               SI log IAP  log KT

	H2(g)           -21.95   21.88   43.83  H2
	H2O(g)           -1.64   -0.01    1.64  H2O
	Halite           -2.77   -1.20    1.57  NaCl
	O2(g)           -40.92  -43.78   -2.85  O2

Initial solution 17.	

-----------------------------Solution composition------------------------------

	Elements           Molality       Moles

	Cl                4.553e-01   4.553e-01  Charge balance
	Na                4.553e-01   4.553e-01

----------------------------Description of solution----------------------------

                                       pH  =   7.000    
                                       pe  =   4.000    
       Specific Conductance (uS/cm, 25 oC) = 44135
                        Activity of water  =   0.985
                           Ionic strength  =   4.553e-01
                       Mass of water (kg)  =   1.000e+00
                 Total alkalinity (eq/kg)  =  -6.958e-09
                    Total carbon (mol/kg)  =   0.000e+00
                       Total CO2 (mol/kg)  =   0.000e+00
                      Temperature (deg C)  =  20.000
                  Electrical balance (eq)  =  -5.515e-14
 Percent error, 100*(Cat-|An|)/(Cat+|An|)  =   0.00
                               Iterations  =   7
                                  Total H  = 1.110124e+02
                                  Total O  = 5.550622e+01

----------------------------Distribution of species----------------------------

                                                   Log       Log         Log 
   Species                 Molality    Activity  Molality  Activity     Gamma

   H+                     1.300e-07   1.000e-07    -6.886    -7.000    -0.114
   OH-                    1.040e-07   6.684e-08    -6.983    -7.175    -0.192
   H2O                    5.551e+01   9.845e-01     1.744    -0.007     0.000
Cl               4.553e-01
   Cl-                    4.553e-01   2.971e-01    -0.342    -0.527    -0.185
H(0)             1.290e-25
   H2                     6.452e-26   7.166e-26   -25.190   -25.145     0.046
Na               4.553e-01
   Na+                    4.553e-01   3.248e-01    -0.342    -0.488    -0.147
   NaOH                   1.902e-08   2.112e-08    -7.721    -7.675     0.046
O(0)             0.000e+00
   O2                     0.000e+00   0.000e+00   -43.824   -43.779     0.046

------------------------------Saturation indices-------------------------------

	Phase               SI log IAP  log KT

	H2(g)           -21.95   21.88   43.83  H2
	H2O(g)           -1.64   -0.01    1.64  H2O
	Halite           -2.59   -1.02    1.57  NaCl
	O2(g)           -40.92  -43.78   -2.85  O2

Initial solution 18.	

-----------------------------Solution composition------------------------------

	Elements           Molality       Moles

	Cl                5.497e-01   5.497e-01  Charge balance
	Na                5.497e-01   5.497e-01

----------------------------Description of solution----------------------------

                                       pH  =   7.000    
                                       pe  =   4.000    
       Specific Conductance (uS/cm, 25 oC) = 51387
                        Activity of water  =   0.981
                           Ionic strength  =   5.497e-01
                       Mass of water (kg)  =   1.000e+00
                 Total alkalinity (eq/kg)  =  -2.607e-09
                    Total carbon (mol/kg)  =   0.000e+00
                       Total CO2 (mol/kg)  =   0.000e+00
                      Temperature (deg C)  =  20.000
                  Electrical balance (eq)  =  -2.859e-10
 Percent error, 100*(Cat-|An|)/(Cat+|An|)  =   0.00
                               Iterations  =   7
                                  Total H  = 1.110124e+02
                                  Total O  = 5.550622e+01

----------------------------Distribution of species----------------------------

                                                   Log       Log         Log 
   Species                 Molality    Activity  Molality  Activity     Gamma

   H+                     1.311e-07   1.000e-07    -6.882    -7.000    -0.118
   OH-                    1.062e-07   6.662e-08    -6.974    -7.176    -0.202
   H2O                    5.551e+01   9.813e-01     1.744    -0.008     0.000
Cl               5.497e-01
   Cl-                    5.497e-01   3.515e-01    -0.260    -0.454    -0.194
H(0)             1.263e-25
   H2                     6.314e-26   7.166e-26   -25.200   -25.145     0.055
Na               5.497e-01
   Na+                    5.497e-01   3.903e-01    -0.260    -0.409    -0.149
   NaOH                   2.230e-08   2.530e-08    -7.652    -7.597     0.055
O(0)             0.000e+00
   O2                     0.000e+00   0.000e+00   -43.836   -43.782     0.055

------------------------------Saturation indices-------------------------------

	Phase               SI log IAP  log KT

	H2(g)           -21.95   21.88   43.83  H2
	H2O(g)           -1.65   -0.01    1.64  H2O
	Halite           -2.43   -0.86    1.57  NaCl
	O2(g)           -40.93  -43.78   -2.85  O2

Initial solution 19.	

-----------------------------Solution composition------------------------------

	Elements           Molality       Moles

	Cl                6.445e-01   6.445e-01  Charge balance
	Na                6.445e-01   6.445e-01

----------------------------Description of solution----------------------------

                                       pH  =   7.000    
                                       pe  =   4.000    
       Specific Conductance (uS/cm, 25 oC) = 58288
                        Activity of water  =   0.978
                           Ionic strength  =   6.445e-01
                       Mass of water (kg)  =   1.000e+00
                 Total alkalinity (eq/kg)  =   1.482e-09
                    Total carbon (mol/kg)  =   0.000e+00
                       Total CO2 (mol/kg)  =   0.000e+00
                      Temperature (deg C)  =  20.000
                  Electrical balance (eq)  =  -1.011e-14
 Percent error, 100*(Cat-|An|)/(Cat+|An|)  =   0.00
                               Iterations  =   8
                                  Total H  = 1.110124e+02
                                  Total O  = 5.550622e+01

----------------------------Distribution of species----------------------------

                                                   Log       Log         Log 
   Species                 Molality    Activity  Molality  Activity     Gamma

   H+                     1.320e-07   1.000e-07    -6.880    -7.000    -0.120
   OH-                    1.080e-07   6.640e-08    -6.967    -7.178    -0.211
   H2O                    5.551e+01   9.781e-01     1.744    -0.010     0.000
Cl               6.445e-01
   Cl-                    6.445e-01   4.053e-01    -0.191    -0.392    -0.202
H(0)             1.235e-25
   H2                     6.177e-26   7.166e-26   -25.209   -25.145     0.064
Na               6.445e-01
   Na+                    6.445e-01   4.570e-01    -0.191    -0.340    -0.149
   NaOH                   2.546e-08   2.953e-08    -7.594    -7.530     0.064
O(0)             0.000e+00
   O2                     0.000e+00   0.000e+00   -43.849   -43.784     0.064

------------------------------Saturation indices-------------------------------

	Phase               SI log IAP  log KT

	H2(g)           -21.95   21.88   43.83  H2
	H2O(g)           -1.65   -0.01    1.64  H2O
	Halite           -2.30   -0.73    1.57  NaCl
	O2(g)           -40.93  -43.78   -2.85  O2

Initial solution 20.	

-----------------------------Solution composition------------------------------

	Elements           Molality       Moles

	Cl                7.214e-01   7.214e-01  Charge balance
	Na                7.214e-01   7.214e-01

----------------------------Description of solution----------------------------

                                       pH  =   7.000    
                                       pe  =   4.000    
       Specific Conductance (uS/cm, 25 oC) = 63650
                        Activity of water  =   0.975
                           Ionic strength  =   7.214e-01
                       Mass of water (kg)  =   1.000e+00
                 Total alkalinity (eq/kg)  =   4.619e-09
                    Total carbon (mol/kg)  =   0.000e+00
                       Total CO2 (mol/kg)  =   0.000e+00
                      Temperature (deg C)  =  20.000
                  Electrical balance (eq)  =  -1.207e-11
 Percent error, 100*(Cat-|An|)/(Cat+|An|)  =   0.00
                               Iterations  =   8
                                  Total H  = 1.110124e+02
                                  Total O  = 5.550622e+01

----------------------------Distribution of species----------------------------

                                                   Log       Log         Log 
   Species                 Molality    Activity  Molality  Activity     Gamma

   H+                     1.326e-07   1.000e-07    -6.878    -7.000    -0.122
   OH-                    1.092e-07   6.623e-08    -6.962    -7.179    -0.217
   H2O                    5.551e+01   9.755e-01     1.744    -0.011     0.000
Cl               7.214e-01
   Cl-                    7.214e-01   4.484e-01    -0.142    -0.348    -0.207
H(0)             1.214e-25
   H2                     6.069e-26   7.166e-26   -25.217   -25.145     0.072
Na               7.214e-01
   Na+                    7.214e-01   5.119e-01    -0.142    -0.291    -0.149
   NaOH                   2.794e-08   3.299e-08    -7.554    -7.482     0.072
O(0)             0.000e+00
   O2                     0.000e+00   0.000e+00   -43.859   -43.787     0.072

------------------------------Saturation indices-------------------------------

	Phase               SI log IAP  log KT

	H2(g)           -21.95   21.88   43.83  H2
	H2O(g)           -1.65   -0.01    1.64  H2O
	Halite           -2.21   -0.64    1.57  NaCl
	O2(g)           -40.93  -43.79   -2.85  O2

Initial solution 21.	

-----------------------------Solution composition------------------------------

	Elements           Molality       Moles

	Cl                9.166e-01   9.166e-01  Charge balance
	Na                9.166e-01   9.166e-01

----------------------------Description of solution----------------------------

                                       pH  =   7.000    
                                       pe  =   4.000    
       Specific Conductance (uS/cm, 25 oC) = 76533
                        Activity of water  =   0.969
                           Ionic strength  =   9.166e-01
                       Mass of water (kg)  =   1.000e+00
                 Total alkalinity (eq/kg)  =   1.199e-08
                    Total carbon (mol/kg)  =   0.000e+00
                       Total CO2 (mol/kg)  =   0.000e+00
                      Temperature (deg C)  =  20.000
                  Electrical balance (eq)  =  -1.219e-12
 Percent error, 100*(Cat-|An|)/(Cat+|An|)  =   0.00
                               Iterations  =   9
                                  Total H  = 1.110124e+02
                                  Total O  = 5.550622e+01

----------------------------Distribution of species----------------------------

                                                   Log       Log         Log 
   Species                 Molality    Activity  Molality  Activity     Gamma

   H+                     1.338e-07   1.000e-07    -6.873    -7.000    -0.127
   OH-                    1.118e-07   6.578e-08    -6.951    -7.182    -0.231
   H2O                    5.551e+01   9.688e-01     1.744    -0.014     0.000
Cl               9.166e-01
   Cl-                    9.166e-01   5.564e-01    -0.038    -0.255    -0.217
H(0)             1.160e-25
   H2                     5.802e-26   7.166e-26   -25.236   -25.145     0.092
Na               9.166e-01
   Na+                    9.166e-01   6.552e-01    -0.038    -0.184    -0.146
   NaOH                   3.396e-08   4.194e-08    -7.469    -7.377     0.092
O(0)             0.000e+00
   O2                     0.000e+00   0.000e+00   -43.884   -43.793     0.092

------------------------------Saturation indices-------------------------------

	Phase               SI log IAP  log KT

	H2(g)           -21.95   21.88   43.83  H2
	H2O(g)           -1.65   -0.01    1.64  H2O
	Halite           -2.01   -0.44    1.57  NaCl
	O2(g)           -40.94  -43.79   -2.85  O2

Initial solution 22.	

-----------------------------Solution composition------------------------------

	Elements           Molality       Moles

	Cl                1.097e+00   1.097e+00  Charge balance
	Na                1.097e+00   1.097e+00

----------------------------Description of solution----------------------------

                                       pH  =   7.000    
                                       pe  =   4.000    
       Specific Conductance (uS/cm, 25 oC) = 87744
                        Activity of water  =   0.963
                           Ionic strength  =   1.097e+00
                       Mass of water (kg)  =   1.000e+00
                 Total alkalinity (eq/kg)  =   1.815e-08
                    Total carbon (mol/kg)  =   0.000e+00
                       Total CO2 (mol/kg)  =   0.000e+00
                      Temperature (deg C)  =  20.000
                  Electrical balance (eq)  =  -1.569e-12
 Percent error, 100*(Cat-|An|)/(Cat+|An|)  =   0.00
                               Iterations  =   9
                                  Total H  = 1.110124e+02
                                  Total O  = 5.550622e+01

----------------------------Distribution of species----------------------------

                                                   Log       Log         Log 
   Species                 Molality    Activity  Molality  Activity     Gamma

   H+                     1.347e-07   1.000e-07    -6.871    -7.000    -0.129
   OH-                    1.137e-07   6.536e-08    -6.944    -7.185    -0.240
   H2O                    5.551e+01   9.627e-01     1.744    -0.017     0.000
Cl               1.097e+00
   Cl-                    1.097e+00   6.549e-01     0.040    -0.184    -0.224
H(0)             1.113e-25
   H2                     5.567e-26   7.166e-26   -25.254   -25.145     0.110
Na               1.097e+00
   Na+                    1.097e+00   7.931e-01     0.040    -0.101    -0.141
   NaOH                   3.919e-08   5.045e-08    -7.407    -7.297     0.110
O(0)             0.000e+00
   O2                     0.000e+00   0.000e+00   -43.908   -43.798     0.110

------------------------------Saturation indices-------------------------------

	Phase               SI log IAP  log KT

	H2(g)           -21.95   21.88   43.83  H2
	H2O(g)           -1.65   -0.02    1.64  H2O
	Halite           -1.86   -0.28    1.57  NaCl
	O2(g)           -40.94  -43.80   -2.85  O2

Initial solution 23.	

-----------------------------Solution composition------------------------------

	Elements           Molality       Moles

	Cl                1.467e+00   1.467e+00  Charge balance
	Na                1.467e+00   1.467e+00

----------------------------Description of solution----------------------------

                                       pH  =   7.000    
                                       pe  =   4.000    
       Specific Conductance (uS/cm, 25 oC) = 109720
                        Activity of water  =   0.950
                           Ionic strength  =   1.467e+00
                       Mass of water (kg)  =   1.000e+00
                 Total alkalinity (eq/kg)  =   2.934e-08
                    Total carbon (mol/kg)  =   0.000e+00
                       Total CO2 (mol/kg)  =   0.000e+00
                      Temperature (deg C)  =  20.000
                  Electrical balance (eq)  =  -6.564e-15
 Percent error, 100*(Cat-|An|)/(Cat+|An|)  =   0.00
                               Iterations  =   9
                                  Total H  = 1.110124e+02
                                  Total O  = 5.550622e+01

----------------------------Distribution of species----------------------------

                                                   Log       Log         Log 
   Species                 Molality    Activity  Molality  Activity     Gamma

   H+                     1.361e-07   1.000e-07    -6.866    -7.000    -0.134
   OH-                    1.163e-07   6.451e-08    -6.934    -7.190    -0.256
   H2O                    5.551e+01   9.501e-01     1.744    -0.022     0.000
Cl               1.467e+00
   Cl-                    1.467e+00   8.557e-01     0.166    -0.068    -0.234
H(0)             1.022e-25
   H2                     5.111e-26   7.166e-26   -25.291   -25.145     0.147
Na               1.467e+00
   Na+                    1.467e+00   1.096e+00     0.166     0.040    -0.126
   NaOH                   4.910e-08   6.883e-08    -7.309    -7.162     0.147
O(0)             0.000e+00
   O2                     0.000e+00   0.000e+00   -43.956   -43.810     0.147

------------------------------Saturation indices-------------------------------

	Phase               SI log IAP  log KT

	H2(g)           -21.95   21.88   43.83  H2
	H2O(g)           -1.66   -0.02    1.64  H2O
	Halite           -1.60   -0.03    1.57  NaCl
	O2(g)           -40.96  -43.81   -2.85  O2

Initial solution 24.	

-----------------------------Solution composition------------------------------

	Elements           Molality       Moles

	Cl                1.811e+00   1.811e+00  Charge balance
	Na                1.811e+00   1.811e+00

----------------------------Description of solution----------------------------

                                       pH  =   7.000    
                                       pe  =   4.000    
       Specific Conductance (uS/cm, 25 oC) = 129895
                        Activity of water  =   0.938
                           Ionic strength  =   1.811e+00
                       Mass of water (kg)  =   1.000e+00
                 Total alkalinity (eq/kg)  =   3.828e-08
                    Total carbon (mol/kg)  =   0.000e+00
                       Total CO2 (mol/kg)  =   0.000e+00
                      Temperature (deg C)  =  20.000
                  Electrical balance (eq)  =  -1.419e-08
 Percent error, 100*(Cat-|An|)/(Cat+|An|)  =   0.00
                               Iterations  =   8
                                  Total H  = 1.110124e+02
                                  Total O  = 5.550622e+01

----------------------------Distribution of species----------------------------

                                                   Log       Log         Log 
   Species                 Molality    Activity  Molality  Activity     Gamma

   H+                     1.370e-07   1.000e-07    -6.863    -7.000    -0.137
   OH-                    1.179e-07   6.371e-08    -6.928    -7.196    -0.267
   H2O                    5.551e+01   9.384e-01     1.744    -0.028     0.000
Cl               1.811e+00
   Cl-                    1.811e+00   1.042e+00     0.258     0.018    -0.240
H(0)             9.445e-26
   H2                     4.722e-26   7.166e-26   -25.326   -25.145     0.181
Na               1.811e+00
   Na+                    1.811e+00   1.405e+00     0.258     0.148    -0.110
   NaOH                   5.742e-08   8.712e-08    -7.241    -7.060     0.181
O(0)             0.000e+00
   O2                     0.000e+00   0.000e+00   -44.001   -43.820     0.181

------------------------------Saturation indices-------------------------------

	Phase               SI log IAP  log KT

	H2(g)           -21.95   21.88   43.83  H2
	H2O(g)           -1.67   -0.03    1.64  H2O
	Halite           -1.41    0.17    1.57  NaCl
	O2(g)           -40.97  -43.82   -2.85  O2

------------------
End of simulation.
------------------

------------------------------------
Reading input data for simulation 3.
------------------------------------

	SOLUTION_SPREAD
	 temp 20
	 units mol/L
	Ca	Cl	HB_EC
	4.50E-02	 1 charge	8100
	9.10E-02	 1 charge	15700
	1.37E-01	 1 charge	22700
	1.83E-01	 1 charge	29400
	2.30E-01	 1 charge	36100
	2.77E-01	 1 charge	42600
	3.24E-01	 1 charge	48900
	3.72E-01	 1 charge	55100
	4.69E-01	 1 charge	67000
	5.67E-01	 1 charge	78300
	6.67E-01	 1 charge	88700
	8.20E-01	 1 charge	103000
	END
WARNING: Could not find element in database, HB_EC.
	Concentration is set to zero.
-------------------------------------------
Beginning of initial solution calculations.
-------------------------------------------

Initial solution 25.	

-----------------------------Solution composition------------------------------

	Elements           Molality       Moles

	Ca                4.674e-02   4.674e-02
	Cl                9.348e-02   9.348e-02  Charge balance

----------------------------Description of solution----------------------------

                                       pH  =   7.000    
                                       pe  =   4.000    
       Specific Conductance (uS/cm, 25 oC) = 9646
                        Activity of water  =   0.998
                           Ionic strength  =   1.402e-01
                       Mass of water (kg)  =   1.000e+00
                 Total alkalinity (eq/kg)  =   5.098e-09
                    Total carbon (mol/kg)  =   0.000e+00
                       Total CO2 (mol/kg)  =   0.000e+00
                      Temperature (deg C)  =  20.000
                  Electrical balance (eq)  =  -4.667e-12
 Percent error, 100*(Cat-|An|)/(Cat+|An|)  =   0.00
                               Iterations  =   5
                                  Total H  = 1.110124e+02
                                  Total O  = 5.550622e+01

----------------------------Distribution of species----------------------------

                                                   Log       Log         Log 
   Species                 Molality    Activity  Molality  Activity     Gamma

   H+                     1.230e-07   1.000e-07    -6.910    -7.000    -0.090
   OH-                    9.186e-08   6.773e-08    -7.037    -7.169    -0.132
   H2O                    5.551e+01   9.976e-01     1.744    -0.001     0.000
Ca               4.674e-02
   Ca+2                   4.674e-02   1.674e-02    -1.330    -1.776    -0.446
   CaOH+                  3.624e-08   2.772e-08    -7.441    -7.557    -0.116
Cl               9.348e-02
   Cl-                    9.348e-02   6.926e-02    -1.029    -1.160    -0.130
H(0)             1.388e-25
   H2                     6.938e-26   7.166e-26   -25.159   -25.145     0.014
O(0)             0.000e+00
   O2                     0.000e+00   0.000e+00   -43.781   -43.767     0.014

------------------------------Saturation indices-------------------------------

	Phase               SI log IAP  log KT

	H2(g)           -21.95   21.88   43.83  H2
	H2O(g)           -1.64    0.00    1.64  H2O
	O2(g)           -40.91  -43.77   -2.85  O2

Initial solution 26.	

-----------------------------Solution composition------------------------------

	Elements           Molality       Moles

	Ca                9.470e-02   9.470e-02
	Cl                1.894e-01   1.894e-01  Charge balance

----------------------------Description of solution----------------------------

                                       pH  =   7.000    
                                       pe  =   4.000    
       Specific Conductance (uS/cm, 25 oC) = 18467
                        Activity of water  =   0.995
                           Ionic strength  =   2.841e-01
                       Mass of water (kg)  =   1.000e+00
                 Total alkalinity (eq/kg)  =   3.492e-08
                    Total carbon (mol/kg)  =   0.000e+00
                       Total CO2 (mol/kg)  =   0.000e+00
                      Temperature (deg C)  =  20.000
                  Electrical balance (eq)  =  -2.152e-12
 Percent error, 100*(Cat-|An|)/(Cat+|An|)  =   0.00
                               Iterations  =   5
                                  Total H  = 1.110124e+02
                                  Total O  = 5.550622e+01

----------------------------Distribution of species----------------------------

                                                   Log       Log         Log 
   Species                 Molality    Activity  Molality  Activity     Gamma

   H+                     1.273e-07   1.000e-07    -6.895    -7.000    -0.105
   OH-                    9.927e-08   6.756e-08    -7.003    -7.170    -0.167
   H2O                    5.551e+01   9.952e-01     1.744    -0.002     0.000
Ca               9.470e-02
   Ca+2                   9.470e-02   2.807e-02    -1.024    -1.552    -0.528
   CaOH+                  6.291e-08   4.636e-08    -7.201    -7.334    -0.133
Cl               1.894e-01
   Cl-                    1.894e-01   1.302e-01    -0.723    -0.885    -0.163
H(0)             1.342e-25
   H2                     6.712e-26   7.166e-26   -25.173   -25.145     0.028
O(0)             0.000e+00
   O2                     0.000e+00   0.000e+00   -43.798   -43.769     0.028

------------------------------Saturation indices-------------------------------

	Phase               SI log IAP  log KT

	H2(g)           -21.95   21.88   43.83  H2
	H2O(g)           -1.64    0.00    1.64  H2O
	O2(g)           -40.91  -43.77   -2.85  O2

Initial solution 27.	

-----------------------------Solution composition------------------------------

	Elements           Molality       Moles

	Ca                1.428e-01   1.428e-01
	Cl                2.857e-01   2.857e-01  Charge balance

----------------------------Description of solution----------------------------

                                       pH  =   7.000    
                                       pe  =   4.000    
       Specific Conductance (uS/cm, 25 oC) = 26633
                        Activity of water  =   0.993
                           Ionic strength  =   4.285e-01
                       Mass of water (kg)  =   1.000e+00
                 Total alkalinity (eq/kg)  =   6.134e-08
                    Total carbon (mol/kg)  =   0.000e+00
                       Total CO2 (mol/kg)  =   0.000e+00
                      Temperature (deg C)  =  20.000
                  Electrical balance (eq)  =  -1.011e-14
 Percent error, 100*(Cat-|An|)/(Cat+|An|)  =   0.00
                               Iterations  =   6
                                  Total H  = 1.110124e+02
                                  Total O  = 5.550622e+01

----------------------------Distribution of species----------------------------

                                                   Log       Log         Log 
   Species                 Molality    Activity  Molality  Activity     Gamma

   H+                     1.297e-07   1.000e-07    -6.887    -7.000    -0.113
   OH-                    1.041e-07   6.740e-08    -6.982    -7.171    -0.189
   H2O                    5.551e+01   9.927e-01     1.744    -0.003     0.000
Ca               1.428e-01
   Ca+2                   1.428e-01   3.866e-02    -0.845    -1.413    -0.568
   CaOH+                  8.689e-08   6.369e-08    -7.061    -7.196    -0.135
Cl               2.857e-01
   Cl-                    2.857e-01   1.877e-01    -0.544    -0.727    -0.182
H(0)             1.298e-25
   H2                     6.492e-26   7.166e-26   -25.188   -25.145     0.043
O(0)             0.000e+00
   O2                     0.000e+00   0.000e+00   -43.814   -43.771     0.043

------------------------------Saturation indices-------------------------------

	Phase               SI log IAP  log KT

	H2(g)           -21.95   21.88   43.83  H2
	H2O(g)           -1.64    0.00    1.64  H2O
	O2(g)           -40.92  -43.77   -2.85  O2

Initial solution 28.	

-----------------------------Solution composition------------------------------

	Elements           Molality       Moles

	Ca                1.912e-01   1.912e-01
	Cl                3.824e-01   3.824e-01  Charge balance

----------------------------Description of solution----------------------------

                                       pH  =   7.000    
                                       pe  =   4.000    
       Specific Conductance (uS/cm, 25 oC) = 33953
                        Activity of water  =   0.990
                           Ionic strength  =   5.735e-01
                       Mass of water (kg)  =   1.000e+00
                 Total alkalinity (eq/kg)  =   8.594e-08
                    Total carbon (mol/kg)  =   0.000e+00
                       Total CO2 (mol/kg)  =   0.000e+00
                      Temperature (deg C)  =  20.000
                  Electrical balance (eq)  =  -4.123e-10
 Percent error, 100*(Cat-|An|)/(Cat+|An|)  =   0.00
                               Iterations  =   6
                                  Total H  = 1.110124e+02
                                  Total O  = 5.550622e+01

----------------------------Distribution of species----------------------------

                                                   Log       Log         Log 
   Species                 Molality    Activity  Molality  Activity     Gamma

   H+                     1.313e-07   1.000e-07    -6.882    -7.000    -0.118
   OH-                    1.077e-07   6.723e-08    -6.968    -7.172    -0.205
   H2O                    5.551e+01   9.902e-01     1.744    -0.004     0.000
Ca               1.912e-01
   Ca+2                   1.912e-01   4.932e-02    -0.719    -1.307    -0.588
   CaOH+                  1.095e-07   8.106e-08    -6.960    -7.091    -0.131
Cl               3.824e-01
   Cl-                    3.824e-01   2.434e-01    -0.418    -0.614    -0.196
H(0)             1.256e-25
   H2                     6.279e-26   7.166e-26   -25.202   -25.145     0.057
O(0)             0.000e+00
   O2                     0.000e+00   0.000e+00   -43.831   -43.774     0.057

------------------------------Saturation indices-------------------------------

	Phase               SI log IAP  log KT

	H2(g)           -21.95   21.88   43.83  H2
	H2O(g)           -1.64    0.00    1.64  H2O
	O2(g)           -40.92  -43.77   -2.85  O2

Initial solution 29.	

-----------------------------Solution composition------------------------------

	Elements           Molality       Moles

	Ca                2.408e-01   2.408e-01
	Cl                4.815e-01   4.815e-01  Charge balance

----------------------------Description of solution----------------------------

                                       pH  =   7.000    
                                       pe  =   4.000    
       Specific Conductance (uS/cm, 25 oC) = 40468
                        Activity of water  =   0.988
                           Ionic strength  =   7.223e-01
                       Mass of water (kg)  =   1.000e+00
                 Total alkalinity (eq/kg)  =   1.099e-07
                    Total carbon (mol/kg)  =   0.000e+00
                       Total CO2 (mol/kg)  =   0.000e+00
                      Temperature (deg C)  =  20.000
                  Electrical balance (eq)  =  -8.965e-14
 Percent error, 100*(Cat-|An|)/(Cat+|An|)  =   0.00
                               Iterations  =   7
                                  Total H  = 1.110124e+02
                                  Total O  = 5.550622e+01

----------------------------Distribution of species----------------------------

                                                   Log       Log         Log 
   Species                 Molality    Activity  Molality  Activity     Gamma

   H+                     1.326e-07   1.000e-07    -6.878    -7.000    -0.122
   OH-                    1.106e-07   6.706e-08    -6.956    -7.174    -0.217
   H2O                    5.551e+01   9.877e-01     1.744    -0.005     0.000
Ca               2.408e-01
   Ca+2                   2.408e-01   6.065e-02    -0.618    -1.217    -0.599
   CaOH+                  1.318e-07   9.942e-08    -6.880    -7.003    -0.123
Cl               4.815e-01
   Cl-                    4.815e-01   2.992e-01    -0.317    -0.524    -0.207
H(0)             1.214e-25
   H2                     6.068e-26   7.166e-26   -25.217   -25.145     0.072
O(0)             0.000e+00
   O2                     0.000e+00   0.000e+00   -43.848   -43.776     0.072

------------------------------Saturation indices-------------------------------

	Phase               SI log IAP  log KT

	H2(g)           -21.95   21.88   43.83  H2
	H2O(g)           -1.64   -0.01    1.64  H2O
	O2(g)           -40.92  -43.78   -2.85  O2

Initial solution 30.	

-----------------------------Solution composition------------------------------

	Elements           Molality       Moles

	Ca                2.905e-01   2.905e-01
	Cl                5.811e-01   5.811e-01  Charge balance

----------------------------Description of solution----------------------------

                                       pH  =   7.000    
                                       pe  =   4.000    
       Specific Conductance (uS/cm, 25 oC) = 46043
                        Activity of water  =   0.985
                           Ionic strength  =   8.716e-01
                       Mass of water (kg)  =   1.000e+00
                 Total alkalinity (eq/kg)  =   1.331e-07
                    Total carbon (mol/kg)  =   0.000e+00
                       Total CO2 (mol/kg)  =   0.000e+00
                      Temperature (deg C)  =  20.000
                  Electrical balance (eq)  =  -4.625e-10
 Percent error, 100*(Cat-|An|)/(Cat+|An|)  =   0.00
                               Iterations  =   7
                                  Total H  = 1.110124e+02
                                  Total O  = 5.550622e+01

----------------------------Distribution of species----------------------------

                                                   Log       Log         Log 
   Species                 Molality    Activity  Molality  Activity     Gamma

   H+                     1.336e-07   1.000e-07    -6.874    -7.000    -0.126
   OH-                    1.130e-07   6.689e-08    -6.947    -7.175    -0.228
   H2O                    5.551e+01   9.852e-01     1.744    -0.006     0.000
Ca               2.905e-01
   Ca+2                   2.905e-01   7.263e-02    -0.537    -1.139    -0.602
   CaOH+                  1.536e-07   1.187e-07    -6.814    -6.925    -0.112
Cl               5.811e-01
   Cl-                    5.811e-01   3.544e-01    -0.236    -0.450    -0.215
H(0)             1.173e-25
   H2                     5.863e-26   7.166e-26   -25.232   -25.145     0.087
O(0)             0.000e+00
   O2                     0.000e+00   0.000e+00   -43.865   -43.778     0.087

------------------------------Saturation indices-------------------------------

	Phase               SI log IAP  log KT

	H2(g)           -21.95   21.88   43.83  H2
	H2O(g)           -1.64   -0.01    1.64  H2O
	O2(g)           -40.92  -43.78   -2.85  O2

Initial solution 31.	

-----------------------------Solution composition------------------------------

	Elements           Molality       Moles

	Ca                3.405e-01   3.405e-01
	Cl                6.810e-01   6.810e-01  Charge balance

----------------------------Description of solution----------------------------

                                       pH  =   7.000    
                                       pe  =   4.000    
       Specific Conductance (uS/cm, 25 oC) = 51199
                        Activity of water  =   0.983
                           Ionic strength  =   1.021e+00
                       Mass of water (kg)  =   1.000e+00
                 Total alkalinity (eq/kg)  =   1.556e-07
                    Total carbon (mol/kg)  =   0.000e+00
                       Total CO2 (mol/kg)  =   0.000e+00
                      Temperature (deg C)  =  20.000
                  Electrical balance (eq)  =  -2.389e-14
 Percent error, 100*(Cat-|An|)/(Cat+|An|)  =   0.00
                               Iterations  =   8
                                  Total H  = 1.110124e+02
                                  Total O  = 5.550622e+01

----------------------------Distribution of species----------------------------

                                                   Log       Log         Log 
   Species                 Molality    Activity  Molality  Activity     Gamma

   H+                     1.344e-07   1.000e-07    -6.872    -7.000    -0.128
   OH-                    1.150e-07   6.671e-08    -6.939    -7.176    -0.236
   H2O                    5.551e+01   9.826e-01     1.744    -0.008     0.000
Ca               3.405e-01
   Ca+2                   3.405e-01   8.542e-02    -0.468    -1.068    -0.601
   CaOH+                  1.750e-07   1.393e-07    -6.757    -6.856    -0.099
Cl               6.810e-01
   Cl-                    6.810e-01   4.092e-01    -0.167    -0.388    -0.221
H(0)             1.133e-25
   H2                     5.664e-26   7.166e-26   -25.247   -25.145     0.102
O(0)             0.000e+00
   O2                     0.000e+00   0.000e+00   -43.882   -43.780     0.102

------------------------------Saturation indices-------------------------------

	Phase               SI log IAP  log KT

	H2(g)           -21.95   21.88   43.83  H2
	H2O(g)           -1.65   -0.01    1.64  H2O
	O2(g)           -40.93  -43.78   -2.85  O2

Initial solution 32.	

-----------------------------Solution composition------------------------------

	Elements           Molality       Moles

	Ca                3.917e-01   3.917e-01
	Cl                7.835e-01   7.835e-01  Charge balance

----------------------------Description of solution----------------------------

                                       pH  =   7.000    
                                       pe  =   4.000    
       Specific Conductance (uS/cm, 25 oC) = 56134
                        Activity of water  =   0.980
                           Ionic strength  =   1.175e+00
                       Mass of water (kg)  =   1.000e+00
                 Total alkalinity (eq/kg)  =   1.783e-07
                    Total carbon (mol/kg)  =   0.000e+00
                       Total CO2 (mol/kg)  =   0.000e+00
                      Temperature (deg C)  =  20.000
                  Electrical balance (eq)  =  -1.357e-10
 Percent error, 100*(Cat-|An|)/(Cat+|An|)  =   0.00
                               Iterations  =   8
                                  Total H  = 1.110124e+02
                                  Total O  = 5.550622e+01

----------------------------Distribution of species----------------------------

                                                   Log       Log         Log 
   Species                 Molality    Activity  Molality  Activity     Gamma

   H+                     1.351e-07   1.000e-07    -6.869    -7.000    -0.131
   OH-                    1.167e-07   6.654e-08    -6.933    -7.177    -0.244
   H2O                    5.551e+01   9.800e-01     1.744    -0.009     0.000
Ca               3.917e-01
   Ca+2                   3.917e-01   9.947e-02    -0.407    -1.002    -0.595
   CaOH+                  1.966e-07   1.618e-07    -6.706    -6.791    -0.085
Cl               7.835e-01
   Cl-                    7.835e-01   4.650e-01    -0.106    -0.333    -0.227
H(0)             1.093e-25
   H2                     5.467e-26   7.166e-26   -25.262   -25.145     0.118
O(0)             0.000e+00
   O2                     0.000e+00   0.000e+00   -43.900   -43.783     0.118

------------------------------Saturation indices-------------------------------

	Phase               SI log IAP  log KT

	H2(g)           -21.95   21.88   43.83  H2
	H2O(g)           -1.65   -0.01    1.64  H2O
	O2(g)           -40.93  -43.78   -2.85  O2

Initial solution 33.	

-----------------------------Solution composition------------------------------

	Elements           Molality       Moles

	Ca                4.959e-01   4.959e-01
	Cl                9.918e-01   9.918e-01  Charge balance

----------------------------Description of solution----------------------------

                                       pH  =   7.000    
[...]
       Specific Conductance (uS/cm, 25 oC) = 17799
                        Activity of water  =   0.993
                           Ionic strength  =   1.820e-01
                       Mass of water (kg)  =   1.000e+00
                 Total alkalinity (eq/kg)  =   1.818e-01
                       Total CO2 (mol/kg)  =   2.134e-01
                      Temperature (deg C)  =  20.000
                  Electrical balance (eq)  =  -2.165e-14
 Percent error, 100*(Cat-|An|)/(Cat+|An|)  =   0.00
                               Iterations  =   6
                                  Total H  = 1.111939e+02
                                  Total O  = 5.611461e+01

----------------------------Distribution of species----------------------------

                                                   Log       Log         Log 
   Species                 Molality    Activity  Molality  Activity     Gamma

   H+                     1.246e-07   1.000e-07    -6.905    -7.000    -0.095
   OH-                    9.410e-08   6.744e-08    -7.026    -7.171    -0.145
   H2O                    5.551e+01   9.933e-01     1.744    -0.003     0.000
C(4)             2.134e-01
   HCO3-                  1.814e-01   1.367e-01    -0.741    -0.864    -0.123
   CO2                    3.180e-02   3.316e-02    -1.498    -1.479     0.018
   CO3-2                  1.785e-04   5.758e-05    -3.748    -4.240    -0.491
H(0)             1.374e-25
   H2                     6.872e-26   7.166e-26   -25.163   -25.145     0.018
K                1.818e-01
   K+                     1.818e-01   1.311e-01    -0.740    -0.882    -0.142
   KOH                    4.329e-09   4.515e-09    -8.364    -8.345     0.018
O(0)             0.000e+00
   O2                     0.000e+00   0.000e+00   -43.789   -43.771     0.018

------------------------------Saturation indices-------------------------------

	Phase               SI log IAP  log KT

	CO2(g)           -0.07   -1.48   -1.41  CO2
	H2(g)           -21.95   21.88   43.83  H2
	H2O(g)           -1.64    0.00    1.64  H2O
	O2(g)           -40.92  -43.77   -2.85  O2

Initial solution 60.	

-----------------------------Solution composition------------------------------

	Elements           Molality       Moles

	C(4)              3.219e-01   3.219e-01  Charge balance
	K                 2.763e-01   2.763e-01

----------------------------Description of solution----------------------------

                                       pH  =   7.000    
                                       pe  =   4.000    
       Specific Conductance (uS/cm, 25 oC) = 26402
                        Activity of water  =   0.990
                           Ionic strength  =   2.766e-01
                       Mass of water (kg)  =   1.000e+00
                 Total alkalinity (eq/kg)  =   2.763e-01
                       Total CO2 (mol/kg)  =   3.219e-01
                      Temperature (deg C)  =  20.000
                  Electrical balance (eq)  =  -4.248e-10
 Percent error, 100*(Cat-|An|)/(Cat+|An|)  =   0.00
                               Iterations  =   5
                                  Total H  = 1.112882e+02
                                  Total O  = 5.642609e+01

----------------------------Distribution of species----------------------------

                                                   Log       Log         Log 
   Species                 Molality    Activity  Molality  Activity     Gamma

   H+                     1.271e-07   1.000e-07    -6.896    -7.000    -0.104
   OH-                    9.843e-08   6.720e-08    -7.007    -7.173    -0.166
   H2O                    5.551e+01   9.898e-01     1.744    -0.004     0.000
C(4)             3.219e-01
   HCO3-                  2.757e-01   2.008e-01    -0.559    -0.697    -0.138
   CO2                    4.587e-02   4.889e-02    -1.338    -1.311     0.028
   CO3-2                  3.005e-04   8.459e-05    -3.522    -4.073    -0.551
H(0)             1.345e-25
   H2                     6.723e-26   7.166e-26   -25.172   -25.145     0.028
K                2.763e-01
   K+                     2.763e-01   1.905e-01    -0.559    -0.720    -0.162
   KOH                    6.134e-09   6.538e-09    -8.212    -8.185     0.028
O(0)             0.000e+00
   O2                     0.000e+00   0.000e+00   -43.802   -43.774     0.028

------------------------------Saturation indices-------------------------------

	Phase               SI log IAP  log KT

	CO2(g)            0.10   -1.31   -1.41  CO2
	H2(g)           -21.95   21.88   43.83  H2
	H2O(g)           -1.64    0.00    1.64  H2O
	O2(g)           -40.92  -43.77   -2.85  O2

Initial solution 61.	

-----------------------------Solution composition------------------------------

	Elements           Molality       Moles

	C(4)              4.323e-01   4.323e-01  Charge balance
	K                 3.734e-01   3.734e-01

----------------------------Description of solution----------------------------

                                       pH  =   7.000    
                                       pe  =   4.000    
       Specific Conductance (uS/cm, 25 oC) = 34891
                        Activity of water  =   0.986
                           Ionic strength  =   3.739e-01
                       Mass of water (kg)  =   1.000e+00
                 Total alkalinity (eq/kg)  =   3.734e-01
                       Total CO2 (mol/kg)  =   4.323e-01
                      Temperature (deg C)  =  20.000
                  Electrical balance (eq)  =  -1.838e-12
 Percent error, 100*(Cat-|An|)/(Cat+|An|)  =   0.00
                               Iterations  =   5
                                  Total H  = 1.113850e+02
                                  Total O  = 5.674387e+01

----------------------------Distribution of species----------------------------

                                                   Log       Log         Log 
   Species                 Molality    Activity  Molality  Activity     Gamma

   H+                     1.289e-07   1.000e-07    -6.890    -7.000    -0.110
   OH-                    1.017e-07   6.696e-08    -6.993    -7.174    -0.182
   H2O                    5.551e+01   9.863e-01     1.744    -0.006     0.000
C(4)             4.323e-01
   HCO3-                  3.726e-01   2.647e-01    -0.429    -0.577    -0.148
   CO2                    5.933e-02   6.467e-02    -1.227    -1.189     0.037
   CO3-2                  4.373e-04   1.115e-04    -3.359    -3.953    -0.594
H(0)             1.315e-25
   H2                     6.575e-26   7.166e-26   -25.182   -25.145     0.037
K                3.734e-01
   K+                     3.734e-01   2.490e-01    -0.428    -0.604    -0.176
   KOH                    7.814e-09   8.516e-09    -8.107    -8.070     0.037
O(0)             0.000e+00
   O2                     0.000e+00   0.000e+00   -43.814   -43.777     0.037

------------------------------Saturation indices-------------------------------

	Phase               SI log IAP  log KT

	CO2(g)            0.22   -1.19   -1.41  CO2
	H2(g)           -21.95   21.88   43.83  H2
	H2O(g)           -1.64   -0.01    1.64  H2O
	O2(g)           -40.92  -43.78   -2.85  O2

Initial solution 62.	

-----------------------------Solution composition------------------------------

	Elements           Molality       Moles

	C(4)              5.448e-01   5.448e-01  Charge balance
	K                 4.731e-01   4.731e-01

----------------------------Description of solution----------------------------

                                       pH  =   7.000    
                                       pe  =   4.000    
       Specific Conductance (uS/cm, 25 oC) = 42245
                        Activity of water  =   0.983
                           Ionic strength  =   4.737e-01
                       Mass of water (kg)  =   1.000e+00
                 Total alkalinity (eq/kg)  =   4.731e-01
                       Total CO2 (mol/kg)  =   5.448e-01
                      Temperature (deg C)  =  20.000
                  Electrical balance (eq)  =  -7.065e-15
 Percent error, 100*(Cat-|An|)/(Cat+|An|)  =   0.00
                               Iterations  =   5
                                  Total H  = 1.114844e+02
                                  Total O  = 5.706834e+01

----------------------------Distribution of species----------------------------

                                                   Log       Log         Log 
   Species                 Molality    Activity  Molality  Activity     Gamma

   H+                     1.303e-07   1.000e-07    -6.885    -7.000    -0.115
   OH-                    1.044e-07   6.672e-08    -6.981    -7.176    -0.194
   H2O                    5.551e+01   9.827e-01     1.744    -0.008     0.000
C(4)             5.448e-01
   HCO3-                  4.719e-01   3.289e-01    -0.326    -0.483    -0.157
   CO2                    7.230e-02   8.064e-02    -1.141    -1.093     0.047
   CO3-2                  5.870e-04   1.385e-04    -3.231    -3.858    -0.627
H(0)             1.285e-25
   H2                     6.425e-26   7.166e-26   -25.192   -25.145     0.047
K                4.731e-01
   K+                     4.731e-01   3.074e-01    -0.325    -0.512    -0.187
   KOH                    9.392e-09   1.047e-08    -8.027    -7.980     0.047
O(0)             0.000e+00
   O2                     0.000e+00   0.000e+00   -43.828   -43.780     0.047

------------------------------Saturation indices-------------------------------

	Phase               SI log IAP  log KT

	CO2(g)            0.31   -1.09   -1.41  CO2
	H2(g)           -21.95   21.88   43.83  H2
	H2O(g)           -1.65   -0.01    1.64  H2O
	O2(g)           -40.93  -43.78   -2.85  O2

Initial solution 63.	

-----------------------------Solution composition------------------------------

	Elements           Molality       Moles

	C(4)              6.595e-01   6.595e-01  Charge balance
	K                 5.754e-01   5.754e-01

----------------------------Description of solution----------------------------

                                       pH  =   7.000    
                                       pe  =   4.000    
       Specific Conductance (uS/cm, 25 oC) = 49215
                        Activity of water  =   0.979
                           Ionic strength  =   5.761e-01
                       Mass of water (kg)  =   1.000e+00
                 Total alkalinity (eq/kg)  =   5.754e-01
                       Total CO2 (mol/kg)  =   6.595e-01
                      Temperature (deg C)  =  20.000
                  Electrical balance (eq)  =  -2.257e-09
 Percent error, 100*(Cat-|An|)/(Cat+|An|)  =   0.00
                               Iterations  =   4
                                  Total H  = 1.115863e+02
                                  Total O  = 5.739976e+01

----------------------------Distribution of species----------------------------

                                                   Log       Log         Log 
   Species                 Molality    Activity  Molality  Activity     Gamma

   H+                     1.313e-07   1.000e-07    -6.882    -7.000    -0.118
   OH-                    1.066e-07   6.647e-08    -6.972    -7.177    -0.205
   H2O                    5.551e+01   9.790e-01     1.744    -0.009     0.000
C(4)             6.595e-01
   HCO3-                  5.739e-01   3.937e-01    -0.241    -0.405    -0.164
   CO2                    8.484e-02   9.688e-02    -1.071    -1.014     0.058
   CO3-2                  7.486e-04   1.658e-04    -3.126    -3.780    -0.655
H(0)             1.255e-25
   H2                     6.275e-26   7.166e-26   -25.202   -25.145     0.058
K                5.754e-01
   K+                     5.754e-01   3.661e-01    -0.240    -0.436    -0.196
   KOH                    1.088e-08   1.243e-08    -7.963    -7.906     0.058
O(0)             0.000e+00
   O2                     0.000e+00   0.000e+00   -43.841   -43.784     0.058

------------------------------Saturation indices-------------------------------

	Phase               SI log IAP  log KT

	CO2(g)            0.39   -1.01   -1.41  CO2
	H2(g)           -21.95   21.88   43.83  H2
	H2O(g)           -1.65   -0.01    1.64  H2O
	O2(g)           -40.93  -43.78   -2.85  O2

Initial solution 64.	

-----------------------------Solution composition------------------------------

	Elements           Molality       Moles

	C(4)              7.774e-01   7.774e-01  Charge balance
	K                 6.812e-01   6.812e-01

----------------------------Description of solution----------------------------

                                       pH  =   7.000    
                                       pe  =   4.000    
       Specific Conductance (uS/cm, 25 oC) = 55899
                        Activity of water  =   0.975
                           Ionic strength  =   6.822e-01
                       Mass of water (kg)  =   1.000e+00
                 Total alkalinity (eq/kg)  =   6.812e-01
                       Total CO2 (mol/kg)  =   7.774e-01
                      Temperature (deg C)  =  20.000
                  Electrical balance (eq)  =   2.839e-09
 Percent error, 100*(Cat-|An|)/(Cat+|An|)  =   0.00
                               Iterations  =   4
                                  Total H  = 1.116918e+02
                                  Total O  = 5.774135e+01

----------------------------Distribution of species----------------------------

                                                   Log       Log         Log 
   Species                 Molality    Activity  Molality  Activity     Gamma

   H+                     1.323e-07   1.000e-07    -6.879    -7.000    -0.121
   OH-                    1.084e-07   6.621e-08    -6.965    -7.179    -0.214
   H2O                    5.551e+01   9.752e-01     1.744    -0.011     0.000
C(4)             7.774e-01
   HCO3-                  6.794e-01   4.598e-01    -0.168    -0.337    -0.170
   CO2                    9.708e-02   1.136e-01    -1.013    -0.945     0.068
   CO3-2                  9.229e-04   1.937e-04    -3.035    -3.713    -0.678
H(0)             1.225e-25
   H2                     6.124e-26   7.166e-26   -25.213   -25.145     0.068
K                6.812e-01
   K+                     6.812e-01   4.258e-01    -0.167    -0.371    -0.204
   KOH                    1.231e-08   1.440e-08    -7.910    -7.842     0.068
O(0)             0.000e+00
   O2                     0.000e+00   0.000e+00   -43.855   -43.787     0.068

------------------------------Saturation indices-------------------------------

	Phase               SI log IAP  log KT

	CO2(g)            0.46   -0.94   -1.41  CO2
	H2(g)           -21.95   21.88   43.83  H2
	H2O(g)           -1.65   -0.01    1.64  H2O
	O2(g)           -40.93  -43.79   -2.85  O2

Initial solution 65.	

-----------------------------Solution composition------------------------------

	Elements           Molality       Moles

	C(4)              8.967e-01   8.967e-01  Charge balance
	K                 7.889e-01   7.889e-01

----------------------------Description of solution----------------------------

                                       pH  =   7.000    
                                       pe  =   4.000    
       Specific Conductance (uS/cm, 25 oC) = 62215
                        Activity of water  =   0.971
                           Ionic strength  =   7.900e-01
                       Mass of water (kg)  =   1.000e+00
                 Total alkalinity (eq/kg)  =   7.889e-01
                       Total CO2 (mol/kg)  =   8.967e-01
                      Temperature (deg C)  =  20.000
                  Electrical balance (eq)  =   2.799e-12
 Percent error, 100*(Cat-|An|)/(Cat+|An|)  =   0.00
                               Iterations  =   4
                                  Total H  = 1.117991e+02
                                  Total O  = 5.808734e+01

----------------------------Distribution of species----------------------------

                                                   Log       Log         Log 
   Species                 Molality    Activity  Molality  Activity     Gamma

   H+                     1.331e-07   1.000e-07    -6.876    -7.000    -0.124
   OH-                    1.100e-07   6.595e-08    -6.958    -7.181    -0.222
   H2O                    5.551e+01   9.713e-01     1.744    -0.013     0.000
C(4)             8.967e-01
   HCO3-                  7.867e-01   5.263e-01    -0.104    -0.279    -0.175
   CO2                    1.088e-01   1.305e-01    -0.963    -0.884     0.079
   CO3-2                  1.106e-03   2.217e-04    -2.956    -3.654    -0.698
H(0)             1.195e-25
   H2                     5.974e-26   7.166e-26   -25.224   -25.145     0.079
K                7.889e-01
   K+                     7.889e-01   4.859e-01    -0.103    -0.313    -0.211
   KOH                    1.364e-08   1.636e-08    -7.865    -7.786     0.079
O(0)             0.000e+00
   O2                     0.000e+00   0.000e+00   -43.869   -43.790     0.079

------------------------------Saturation indices-------------------------------

	Phase               SI log IAP  log KT

	CO2(g)            0.52   -0.88   -1.41  CO2
	H2(g)           -21.95   21.88   43.83  H2
	H2O(g)           -1.65   -0.01    1.64  H2O
	O2(g)           -40.94  -43.79   -2.85  O2

Initial solution 66.	

-----------------------------Solution composition------------------------------

	Elements           Molality       Moles

	C(4)              1.144e+00   1.144e+00  Charge balance
	K                 1.015e+00   1.015e+00

----------------------------Description of solution----------------------------

                                       pH  =   7.000    
                                       pe  =   4.000    
       Specific Conductance (uS/cm, 25 oC) = 74133
                        Activity of water  =   0.963
                           Ionic strength  =   1.016e+00
                       Mass of water (kg)  =   1.000e+00
                 Total alkalinity (eq/kg)  =   1.015e+00
                       Total CO2 (mol/kg)  =   1.144e+00
                      Temperature (deg C)  =  20.000
                  Electrical balance (eq)  =   2.729e-12
 Percent error, 100*(Cat-|An|)/(Cat+|An|)  =   0.00
                               Iterations  =   4
                                  Total H  = 1.120240e+02
                                  Total O  = 5.880828e+01

----------------------------Distribution of species----------------------------

                                                   Log       Log         Log 
   Species                 Molality    Activity  Molality  Activity     Gamma

   H+                     1.343e-07   1.000e-07    -6.872    -7.000    -0.128
   OH-                    1.127e-07   6.540e-08    -6.948    -7.184    -0.236
   H2O                    5.551e+01   9.633e-01     1.744    -0.016     0.000
C(4)             1.144e+00
   HCO3-                  1.012e+00   6.638e-01     0.005    -0.178    -0.183
   CO2                    1.314e-01   1.660e-01    -0.881    -0.780     0.102
   CO3-2                  1.508e-03   2.796e-04    -2.822    -3.554    -0.732
H(0)             1.134e-25
   H2                     5.671e-26   7.166e-26   -25.246   -25.145     0.102
K                1.015e+00
   K+                     1.015e+00   6.100e-01     0.006    -0.215    -0.221
   KOH                    1.612e-08   2.037e-08    -7.793    -7.691     0.102
O(0)             0.000e+00
   O2                     0.000e+00   0.000e+00   -43.899   -43.798     0.102

------------------------------Saturation indices-------------------------------

	Phase               SI log IAP  log KT

	CO2(g)            0.63   -0.78   -1.41  CO2
	H2(g)           -21.95   21.88   43.83  H2
	H2O(g)           -1.65   -0.02    1.64  H2O
	O2(g)           -40.94  -43.80   -2.85  O2

------------------
End of simulation.
------------------

------------------------------------
Reading input data for simulation 7.
------------------------------------

-----------
End of run.
-----------

