   Input file: test_sit
  Output file: test_sit.out
Database file: ../database/sit.dat

------------------
Reading data base.
------------------

	SOLUTION_MASTER_SPECIES
	SOLUTION_SPECIES
	SIT
	PHASES	
	EXCHANGE_MASTER_SPECIES
	EXCHANGE_SPECIES
	SURFACE_MASTER_SPECIES
	SURFACE_SPECIES
	RATES
	END
------------------------------------
Reading input data for simulation 1.
------------------------------------

	DATABASE ../database/sit.dat
	SOLUTION
		units mol/kgw
		pH	0   charge
		Cl	3
		K       .001
		N(5)    .001
-------------------------------------------
Beginning of initial solution calculations.
-------------------------------------------

Initial solution 1.	

0 Al(OH)2+:	0.000000e+000	0.000000e+000	-2.458680e-001	0.000000e+000 
43 H+:	3.000000e+000	4.771213e-001	1.142020e-001	0.000000e+000 
65 K+:	1.000000e-003	-3.000000e+000	-2.459780e-001	0.000000e+000 
271 H2:	6.371512e-011	-1.019576e+001	0.000000e+000	0.000000e+000 
286 KOH:	1.155790e-018	0.000000e+000	0.000000e+000	0.000000e+000 
501 Cl-:	3.000000e+000	4.771213e-001	1.141320e-001	0.000000e+000 
531 NO3-:	1.000000e-003	-3.000000e+000	-3.597800e-002	0.000000e+000 
535 OH-:	3.336937e-015	0.000000e+000	-2.457780e-001	0.000000e+000 
0 Al(OH)2+:	0.000000e+000	0.000000e+000	-2.458680e-001	0.000000e+000 
43 H+:	3.000000e+000	4.771213e-001	1.142020e-001	0.000000e+000 
65 K+:	1.000000e-003	-3.000000e+000	-2.459780e-001	0.000000e+000 
271 H2:	6.371512e-011	-1.019576e+001	0.000000e+000	0.000000e+000 
286 KOH:	1.155790e-018	0.000000e+000	0.000000e+000	0.000000e+000 
501 Cl-:	3.000000e+000	4.771213e-001	1.141320e-001	0.000000e+000 
531 NO3-:	1.000000e-003	-3.000000e+000	-3.597800e-002	0.000000e+000 
535 OH-:	3.336937e-015	0.000000e+000	-2.457780e-001	0.000000e+000 
0 Al(OH)2+:	0.000000e+000	0.000000e+000	-2.458719e-001	0.000000e+000 
43 H+:	3.000000e+000	4.771213e-001	1.142810e-001	0.000000e+000 
65 K+:	1.000000e-003	-3.000000e+000	-2.459819e-001	0.000000e+000 
271 H2:	6.371512e-011	-1.019576e+001	0.000000e+000	0.000000e+000 
286 KOH:	1.155790e-018	0.000000e+000	0.000000e+000	0.000000e+000 
501 Cl-:	3.000691e+000	4.772213e-001	1.141281e-001	0.000000e+000 
531 NO3-:	1.000000e-003	-3.000000e+000	-3.598194e-002	0.000000e+000 
535 OH-:	3.336937e-015	0.000000e+000	-2.457819e-001	0.000000e+000 
0 Al(OH)2+:	0.000000e+000	0.000000e+000	-2.458719e-001	0.000000e+000 
43 H+:	3.000691e+000	4.772213e-001	1.141981e-001	0.000000e+000 
65 K+:	1.000000e-003	-3.000000e+000	-2.459819e-001	0.000000e+000 
271 H2:	6.374447e-011	-1.019576e+001	0.000000e+000	0.000000e+000 
286 KOH:	1.155523e-018	0.000000e+000	0.000000e+000	0.000000e+000 
501 Cl-:	3.000000e+000	4.771213e-001	1.142110e-001	0.000000e+000 
531 NO3-:	1.000000e-003	-3.000000e+000	-3.593358e-002	0.000000e+000 
535 OH-:	3.336169e-015	0.000000e+000	-2.457819e-001	0.000000e+000 
0 Al(OH)2+:	0.000000e+000	0.000000e+000	-2.458680e-001	0.000000e+000 
43 H+:	3.000000e+000	4.771213e-001	1.142020e-001	0.000000e+000 
65 K+:	1.000230e-003	-2.999900e+000	-2.459780e-001	0.000000e+000 
271 H2:	6.371512e-011	-1.019556e+001	0.000000e+000	0.000000e+000 
286 KOH:	1.156056e-018	0.000000e+000	0.000000e+000	0.000000e+000 
501 Cl-:	3.000000e+000	4.771213e-001	1.141320e-001	0.000000e+000 
531 NO3-:	1.000000e-003	-3.000000e+000	-3.597803e-002	0.000000e+000 
535 OH-:	3.336937e-015	0.000000e+000	-2.457780e-001	0.000000e+000 
0 Al(OH)2+:	0.000000e+000	0.000000e+000	-2.458680e-001	0.000000e+000 
43 H+:	3.000000e+000	4.771213e-001	1.142020e-001	0.000000e+000 
65 K+:	1.000000e-003	-3.000000e+000	-2.459780e-001	0.000000e+000 
271 H2:	6.371512e-011	-1.019576e+001	0.000000e+000	0.000000e+000 
286 KOH:	1.155790e-018	0.000000e+000	0.000000e+000	0.000000e+000 
501 Cl-:	3.000000e+000	4.771213e-001	1.141320e-001	0.000000e+000 
531 NO3-:	1.000230e-003	-2.999900e+000	-3.597800e-002	0.000000e+000 
535 OH-:	3.336937e-015	0.000000e+000	-2.457780e-001	0.000000e+000 
0 Al(OH)2+:	0.000000e+000	0.000000e+000	-2.458680e-001	0.000000e+000 
43 H+:	3.000000e+000	4.771213e-001	1.142020e-001	0.000000e+000 
65 K+:	1.000000e-003	-3.000000e+000	-2.459780e-001	0.000000e+000 
271 H2:	6.371512e-011	-1.019576e+001	0.000000e+000	0.000000e+000 
286 KOH:	1.156056e-018	0.000000e+000	0.000000e+000	0.000000e+000 
501 Cl-:	3.000000e+000	4.771213e-001	1.141320e-001	0.000000e+000 
531 NO3-:	1.000000e-003	-3.000000e+000	-3.597800e-002	0.000000e+000 
535 OH-:	3.337706e-015	0.000000e+000	-2.457780e-001	0.000000e+000 
0 Al(OH)2+:	0.000000e+000	0.000000e+000	-2.458641e-001	0.000000e+000 
43 H+:	3.000000e+000	4.771213e-001	1.141230e-001	0.000000e+000 
65 K+:	1.000000e-003	-3.000000e+000	-2.459741e-001	0.000000e+000 
271 H2:	6.371512e-011	-1.019576e+001	0.000000e+000	0.000000e+000 
286 KOH:	1.155790e-018	0.000000e+000	0.000000e+000	0.000000e+000 
501 Cl-:	2.999309e+000	4.771213e-001	1.141359e-001	1.000000e-004 
531 NO3-:	1.000000e-003	-3.000000e+000	-3.597407e-002	0.000000e+000 
535 OH-:	3.336937e-015	0.000000e+000	-2.457741e-001	0.000000e+000 
0 Al(OH)2+:	0.000000e+000	0.000000e+000	-2.458641e-001	0.000000e+000 
43 H+:	2.999309e+000	4.771213e-001	1.142059e-001	1.000000e-004 
65 K+:	1.000000e-003	-3.000000e+000	-2.459741e-001	0.000000e+000 
271 H2:	6.371512e-011	-1.019576e+001	0.000000e+000	0.000000e+000 
286 KOH:	1.155790e-018	0.000000e+000	0.000000e+000	0.000000e+000 
501 Cl-:	3.000000e+000	4.771213e-001	1.140530e-001	0.000000e+000 
531 NO3-:	1.000000e-003	-3.000000e+000	-3.602242e-002	0.000000e+000 
535 OH-:	3.336937e-015	0.000000e+000	-2.457741e-001	0.000000e+000 
0 Al(OH)2+:	0.000000e+000	0.000000e+000	-2.458680e-001	0.000000e+000 
43 H+:	3.000000e+000	4.771213e-001	1.142020e-001	0.000000e+000 
65 K+:	1.000000e-003	-3.000000e+000	-2.459780e-001	0.000000e+000 
271 H2:	6.370045e-011	-1.019566e+001	0.000000e+000	1.000000e-004 
286 KOH:	1.155790e-018	0.000000e+000	0.000000e+000	0.000000e+000 
501 Cl-:	3.000000e+000	4.771213e-001	1.141320e-001	0.000000e+000 
531 NO3-:	1.000000e-003	-3.000000e+000	-3.597800e-002	0.000000e+000 
535 OH-:	3.336937e-015	0.000000e+000	-2.457780e-001	0.000000e+000 
0 Al(OH)2+:	0.000000e+000	0.000000e+000	-2.458680e-001	0.000000e+000 
43 H+:	3.000000e+000	4.771213e-001	1.142020e-001	0.000000e+000 
65 K+:	1.000000e-003	-3.000000e+000	-2.459780e-001	0.000000e+000 
271 H2:	6.371512e-011	-1.019586e+001	0.000000e+000	0.000000e+000 
286 KOH:	1.155790e-018	0.000000e+000	0.000000e+000	0.000000e+000 
501 Cl-:	3.000000e+000	4.771213e-001	1.141320e-001	0.000000e+000 
531 NO3-:	1.000000e-003	-3.000000e+000	-3.597800e-002	0.000000e+000 
535 OH-:	3.336937e-015	0.000000e+000	-2.457780e-001	0.000000e+000 
0 Al(OH)2+:	0.000000e+000	0.000000e+000	-2.458680e-001	0.000000e+000 
43 H+:	3.000000e+000	4.771213e-001	1.142020e-001	0.000000e+000 
65 K+:	9.997698e-004	-3.000000e+000	-2.459780e-001	1.000000e-004 
271 H2:	6.371512e-011	-1.019576e+001	0.000000e+000	0.000000e+000 
286 KOH:	1.155790e-018	0.000000e+000	0.000000e+000	0.000000e+000 
501 Cl-:	3.000000e+000	4.771213e-001	1.141320e-001	0.000000e+000 
531 NO3-:	1.000000e-003	-3.000000e+000	-3.597798e-002	0.000000e+000 
535 OH-:	3.336937e-015	0.000000e+000	-2.457780e-001	0.000000e+000 
0 Al(OH)2+:	0.000000e+000	0.000000e+000	-2.458680e-001	0.000000e+000 
43 H+:	3.000000e+000	4.771213e-001	1.142020e-001	0.000000e+000 
65 K+:	1.000000e-003	-3.000000e+000	-2.459780e-001	0.000000e+000 
271 H2:	6.371512e-011	-1.019576e+001	0.000000e+000	0.000000e+000 
286 KOH:	1.155523e-018	0.000000e+000	0.000000e+000	1.000000e-004 
501 Cl-:	3.000000e+000	4.771213e-001	1.141320e-001	0.000000e+000 
531 NO3-:	1.000000e-003	-3.000000e+000	-3.597800e-002	0.000000e+000 
535 OH-:	3.336937e-015	0.000000e+000	-2.457780e-001	0.000000e+000 
0 Al(OH)2+:	0.000000e+000	0.000000e+000	-2.458680e-001	0.000000e+000 
43 H+:	3.000000e+000	4.771213e-001	1.142020e-001	0.000000e+000 
65 K+:	1.000000e-003	-3.000000e+000	-2.459780e-001	0.000000e+000 
271 H2:	6.371512e-011	-1.019576e+001	0.000000e+000	0.000000e+000 
286 KOH:	1.155790e-018	0.000000e+000	0.000000e+000	0.000000e+000 
501 Cl-:	3.000000e+000	4.771213e-001	1.141320e-001	0.000000e+000 
531 NO3-:	9.997698e-004	-3.000000e+000	-3.597800e-002	1.000000e-004 
535 OH-:	3.336937e-015	0.000000e+000	-2.457780e-001	0.000000e+000 
0 Al(OH)2+:	0.000000e+000	0.000000e+000	-2.458680e-001	0.000000e+000 
43 H+:	3.000000e+000	4.771213e-001	1.142020e-001	0.000000e+000 
65 K+:	1.000000e-003	-3.000000e+000	-2.459780e-001	0.000000e+000 
271 H2:	6.371512e-011	-1.019576e+001	0.000000e+000	0.000000e+000 
286 KOH:	1.155790e-018	0.000000e+000	0.000000e+000	0.000000e+000 
501 Cl-:	3.000000e+000	4.771213e-001	1.141320e-001	0.000000e+000 
531 NO3-:	1.000000e-003	-3.000000e+000	-3.597800e-002	0.000000e+000 
535 OH-:	3.336937e-015	0.000000e+000	-2.457780e-001	0.000000e+000 
0 Al(OH)2+:	0.000000e+000	0.000000e+000	-2.458680e-001	0.000000e+000 
43 H+:	3.000000e+000	4.771213e-001	1.142020e-001	0.000000e+000 
65 K+:	1.000000e-003	-3.000000e+000	-2.459780e-001	0.000000e+000 
271 H2:	6.371512e-011	-1.019576e+001	0.000000e+000	0.000000e+000 
286 KOH:	1.155790e-018	0.000000e+000	0.000000e+000	0.000000e+000 
501 Cl-:	3.000000e+000	4.771213e-001	1.141320e-001	0.000000e+000 
531 NO3-:	1.000000e-003	-3.000000e+000	-3.597800e-002	0.000000e+000 
535 OH-:	3.336169e-015	0.000000e+000	-2.457780e-001	1.000000e-004 
0 Al(OH)2+:	0.000000e+000	0.000000e+000	-2.458680e-001	0.000000e+000 
43 H+:	3.000000e+000	4.771213e-001	1.142020e-001	0.000000e+000 
65 K+:	1.000000e-003	-3.000000e+000	-2.459780e-001	0.000000e+000 
271 H2:	6.371512e-011	-1.019576e+001	0.000000e+000	0.000000e+000 
286 KOH:	1.155790e-018	0.000000e+000	0.000000e+000	0.000000e+000 
501 Cl-:	3.000000e+000	4.771213e-001	1.141320e-001	0.000000e+000 
531 NO3-:	1.000000e-003	-3.000000e+000	-3.597800e-002	0.000000e+000 
535 OH-:	3.336937e-015	0.000000e+000	-2.457780e-001	0.000000e+000 
0 Al(OH)2+:	0.000000e+000	0.000000e+000	-2.458680e-001	0.000000e+000 
43 H+:	3.000000e+000	5.912982e-001	1.142020e-001	1.142033e-001 
65 K+:	1.000000e-003	-3.245920e+000	-2.459780e-001	-2.459767e-001 
271 H2:	6.371512e-011	-1.019576e+001	0.000000e+000	0.000000e+000 
286 KOH:	1.155790e-018	0.000000e+000	0.000000e+000	0.000000e+000 
501 Cl-:	3.000000e+000	5.912282e-001	1.141320e-001	1.141333e-001 
531 NO3-:	1.000000e-003	-3.035968e+000	-3.597800e-002	-3.597674e-002 
535 OH-:	3.336937e-015	0.000000e+000	-2.457780e-001	-2.457767e-001 
0 Al(OH)2+:	0.000000e+000	0.000000e+000	-2.458680e-001	0.000000e+000 
43 H+:	3.000000e+000	5.913245e-001	1.142020e-001	1.142033e-001 
65 K+:	1.000000e-003	-3.245977e+000	-2.459780e-001	-2.459767e-001 
271 H2:	1.078075e-010	-9.967351e+000	0.000000e+000	0.000000e+000 
286 KOH:	4.412524e-019	0.000000e+000	0.000000e+000	0.000000e+000 
501 Cl-:	3.000000e+000	5.912545e-001	1.141320e-001	1.141333e-001 
531 NO3-:	1.000000e-003	-3.035977e+000	-3.597800e-002	-3.597674e-002 
535 OH-:	3.952845e-015	0.000000e+000	-2.457780e-001	-2.457767e-001 
0 Al(OH)2+:	0.000000e+000	0.000000e+000	-2.458680e-001	0.000000e+000 
43 H+:	3.000000e+000	5.913245e-001	1.142020e-001	1.142033e-001 
65 K+:	1.000000e-003	-3.245977e+000	-2.459780e-001	-2.459767e-001 
271 H2:	1.078075e-010	-9.967351e+000	0.000000e+000	0.000000e+000 
286 KOH:	4.412524e-019	0.000000e+000	0.000000e+000	0.000000e+000 
501 Cl-:	3.000000e+000	5.912545e-001	1.141320e-001	1.141333e-001 
531 NO3-:	1.000000e-003	-3.035977e+000	-3.597800e-002	-3.597674e-002 
535 OH-:	3.952845e-015	0.000000e+000	-2.457780e-001	-2.457767e-001 
0 Al(OH)2+:	0.000000e+000	0.000000e+000	-2.458719e-001	0.000000e+000 
43 H+:	3.000000e+000	5.913245e-001	1.142810e-001	1.142033e-001 
65 K+:	1.000000e-003	-3.245977e+000	-2.459819e-001	-2.459767e-001 
271 H2:	1.078075e-010	-9.967351e+000	0.000000e+000	0.000000e+000 
286 KOH:	4.412524e-019	0.000000e+000	0.000000e+000	0.000000e+000 
501 Cl-:	3.000691e+000	5.913545e-001	1.141281e-001	1.141333e-001 
531 NO3-:	1.000000e-003	-3.035977e+000	-3.598194e-002	-3.597674e-002 
535 OH-:	3.952845e-015	0.000000e+000	-2.457819e-001	-2.457767e-001 
0 Al(OH)2+:	0.000000e+000	0.000000e+000	-2.458719e-001	0.000000e+000 
43 H+:	3.000691e+000	5.914245e-001	1.141981e-001	1.142033e-001 
65 K+:	1.000000e-003	-3.245977e+000	-2.459819e-001	-2.459767e-001 
271 H2:	1.078572e-010	-9.967351e+000	0.000000e+000	0.000000e+000 
286 KOH:	4.411508e-019	0.000000e+000	0.000000e+000	0.000000e+000 
501 Cl-:	3.000000e+000	5.912545e-001	1.142110e-001	1.141333e-001 
531 NO3-:	1.000000e-003	-3.035977e+000	-3.593358e-002	-3.597674e-002 
535 OH-:	3.951935e-015	0.000000e+000	-2.457819e-001	-2.457767e-001 
0 Al(OH)2+:	0.000000e+000	0.000000e+000	-2.458680e-001	0.000000e+000 
43 H+:	3.000000e+000	5.913245e-001	1.142020e-001	1.142033e-001 
65 K+:	1.000230e-003	-3.245877e+000	-2.459780e-001	-2.459767e-001 
271 H2:	1.078075e-010	-9.967151e+000	0.000000e+000	0.000000e+000 
286 KOH:	4.413540e-019	0.000000e+000	0.000000e+000	0.000000e+000 
501 Cl-:	3.000000e+000	5.912545e-001	1.141320e-001	1.141333e-001 
531 NO3-:	1.000000e-003	-3.035977e+000	-3.597803e-002	-3.597674e-002 
535 OH-:	3.952845e-015	0.000000e+000	-2.457780e-001	-2.457767e-001 
0 Al(OH)2+:	0.000000e+000	0.000000e+000	-2.458680e-001	0.000000e+000 
43 H+:	3.000000e+000	5.913245e-001	1.142020e-001	1.142033e-001 
65 K+:	1.000000e-003	-3.245977e+000	-2.459780e-001	-2.459767e-001 
271 H2:	1.078075e-010	-9.967351e+000	0.000000e+000	0.000000e+000 
286 KOH:	4.412524e-019	0.000000e+000	0.000000e+000	0.000000e+000 
501 Cl-:	3.000000e+000	5.912545e-001	1.141320e-001	1.141333e-001 
531 NO3-:	1.000230e-003	-3.035877e+000	-3.597800e-002	-3.597674e-002 
535 OH-:	3.952845e-015	0.000000e+000	-2.457780e-001	-2.457767e-001 
0 Al(OH)2+:	0.000000e+000	0.000000e+000	-2.458680e-001	0.000000e+000 
43 H+:	3.000000e+000	5.913245e-001	1.142020e-001	1.142033e-001 
65 K+:	1.000000e-003	-3.245977e+000	-2.459780e-001	-2.459767e-001 
271 H2:	1.078075e-010	-9.967351e+000	0.000000e+000	0.000000e+000 
286 KOH:	4.413540e-019	0.000000e+000	0.000000e+000	0.000000e+000 
501 Cl-:	3.000000e+000	5.912545e-001	1.141320e-001	1.141333e-001 
531 NO3-:	1.000000e-003	-3.035977e+000	-3.597800e-002	-3.597674e-002 
535 OH-:	3.953756e-015	0.000000e+000	-2.457780e-001	-2.457767e-001 
0 Al(OH)2+:	0.000000e+000	0.000000e+000	-2.458641e-001	0.000000e+000 
43 H+:	3.000000e+000	5.913245e-001	1.141230e-001	1.142033e-001 
65 K+:	1.000000e-003	-3.245977e+000	-2.459741e-001	-2.459767e-001 
271 H2:	1.078075e-010	-9.967351e+000	0.000000e+000	0.000000e+000 
286 KOH:	4.412524e-019	0.000000e+000	0.000000e+000	0.000000e+000 
501 Cl-:	2.999309e+000	5.912545e-001	1.141359e-001	1.142333e-001 
531 NO3-:	1.000000e-003	-3.035977e+000	-3.597407e-002	-3.597674e-002 
535 OH-:	3.952845e-015	0.000000e+000	-2.457741e-001	-2.457767e-001 
0 Al(OH)2+:	0.000000e+000	0.000000e+000	-2.458641e-001	0.000000e+000 
43 H+:	2.999309e+000	5.913245e-001	1.142059e-001	1.143033e-001 
65 K+:	1.000000e-003	-3.245977e+000	-2.459741e-001	-2.459767e-001 
271 H2:	1.078075e-010	-9.967351e+000	0.000000e+000	0.000000e+000 
286 KOH:	4.412524e-019	0.000000e+000	0.000000e+000	0.000000e+000 
501 Cl-:	3.000000e+000	5.912545e-001	1.140530e-001	1.141333e-001 
531 NO3-:	1.000000e-003	-3.035977e+000	-3.602242e-002	-3.597674e-002 
535 OH-:	3.952845e-015	0.000000e+000	-2.457741e-001	-2.457767e-001 
0 Al(OH)2+:	0.000000e+000	0.000000e+000	-2.458680e-001	0.000000e+000 
43 H+:	3.000000e+000	5.913245e-001	1.142020e-001	1.142033e-001 
65 K+:	1.000000e-003	-3.245977e+000	-2.459780e-001	-2.459767e-001 
271 H2:	1.077827e-010	-9.967251e+000	0.000000e+000	1.000000e-004 
286 KOH:	4.412524e-019	0.000000e+000	0.000000e+000	0.000000e+000 
501 Cl-:	3.000000e+000	5.912545e-001	1.141320e-001	1.141333e-001 
531 NO3-:	1.000000e-003	-3.035977e+000	-3.597800e-002	-3.597674e-002 
535 OH-:	3.952845e-015	0.000000e+000	-2.457780e-001	-2.457767e-001 
0 Al(OH)2+:	0.000000e+000	0.000000e+000	-2.458680e-001	0.000000e+000 
43 H+:	3.000000e+000	5.913245e-001	1.142020e-001	1.142033e-001 
65 K+:	1.000000e-003	-3.245977e+000	-2.459780e-001	-2.459767e-001 
271 H2:	1.078075e-010	-9.967451e+000	0.000000e+000	0.000000e+000 
286 KOH:	4.412524e-019	0.000000e+000	0.000000e+000	0.000000e+000 
501 Cl-:	3.000000e+000	5.912545e-001	1.141320e-001	1.141333e-001 
531 NO3-:	1.000000e-003	-3.035977e+000	-3.597800e-002	-3.597674e-002 
535 OH-:	3.952845e-015	0.000000e+000	-2.457780e-001	-2.457767e-001 
0 Al(OH)2+:	0.000000e+000	0.000000e+000	-2.458680e-001	0.000000e+000 
43 H+:	3.000000e+000	5.913245e-001	1.142020e-001	1.142033e-001 
65 K+:	9.997698e-004	-3.245977e+000	-2.459780e-001	-2.458767e-001 
271 H2:	1.078075e-010	-9.967351e+000	0.000000e+000	0.000000e+000 
286 KOH:	4.412524e-019	0.000000e+000	0.000000e+000	0.000000e+000 
501 Cl-:	3.000000e+000	5.912545e-001	1.141320e-001	1.141333e-001 
531 NO3-:	1.000000e-003	-3.035977e+000	-3.597798e-002	-3.597674e-002 
535 OH-:	3.952845e-015	0.000000e+000	-2.457780e-001	-2.457767e-001 
0 Al(OH)2+:	0.000000e+000	0.000000e+000	-2.458680e-001	0.000000e+000 
43 H+:	3.000000e+000	5.913245e-001	1.142020e-001	1.142033e-001 
65 K+:	1.000000e-003	-3.245977e+000	-2.459780e-001	-2.459767e-001 
271 H2:	1.078075e-010	-9.967351e+000	0.000000e+000	0.000000e+000 
286 KOH:	4.411508e-019	0.000000e+000	0.000000e+000	1.000000e-004 
501 Cl-:	3.000000e+000	5.912545e-001	1.141320e-001	1.141333e-001 
531 NO3-:	1.000000e-003	-3.035977e+000	-3.597800e-002	-3.597674e-002 
535 OH-:	3.952845e-015	0.000000e+000	-2.457780e-001	-2.457767e-001 
0 Al(OH)2+:	0.000000e+000	0.000000e+000	-2.458680e-001	0.000000e+000 
43 H+:	3.000000e+000	5.913245e-001	1.142020e-001	1.142033e-001 
65 K+:	1.000000e-003	-3.245977e+000	-2.459780e-001	-2.459767e-001 
271 H2:	1.078075e-010	-9.967351e+000	0.000000e+000	0.000000e+000 
286 KOH:	4.412524e-019	0.000000e+000	0.000000e+000	0.000000e+000 
501 Cl-:	3.000000e+000	5.912545e-001	1.141320e-001	1.141333e-001 
531 NO3-:	9.997698e-004	-3.035977e+000	-3.597800e-002	-3.587674e-002 
535 OH-:	3.952845e-015	0.000000e+000	-2.457780e-001	-2.457767e-001 
0 Al(OH)2+:	0.000000e+000	0.000000e+000	-2.458680e-001	0.000000e+000 
43 H+:	3.000000e+000	5.913245e-001	1.142020e-001	1.142033e-001 
65 K+:	1.000000e-003	-3.245977e+000	-2.459780e-001	-2.459767e-001 
271 H2:	1.078075e-010	-9.967351e+000	0.000000e+000	0.000000e+000 
286 KOH:	4.412524e-019	0.000000e+000	0.000000e+000	0.000000e+000 
501 Cl-:	3.000000e+000	5.912545e-001	1.141320e-001	1.141333e-001 
531 NO3-:	1.000000e-003	-3.035977e+000	-3.597800e-002	-3.597674e-002 
535 OH-:	3.952845e-015	0.000000e+000	-2.457780e-001	-2.457767e-001 
0 Al(OH)2+:	0.000000e+000	0.000000e+000	-2.458680e-001	0.000000e+000 
43 H+:	3.000000e+000	5.913245e-001	1.142020e-001	1.142033e-001 
65 K+:	1.000000e-003	-3.245977e+000	-2.459780e-001	-2.459767e-001 
271 H2:	1.078075e-010	-9.967351e+000	0.000000e+000	0.000000e+000 
286 KOH:	4.412524e-019	0.000000e+000	0.000000e+000	0.000000e+000 
501 Cl-:	3.000000e+000	5.912545e-001	1.141320e-001	1.141333e-001 
531 NO3-:	1.000000e-003	-3.035977e+000	-3.597800e-002	-3.597674e-002 
535 OH-:	3.951935e-015	0.000000e+000	-2.457780e-001	-2.456767e-001 
0 Al(OH)2+:	0.000000e+000	0.000000e+000	-2.458680e-001	0.000000e+000 
43 H+:	3.000000e+000	5.913245e-001	1.142020e-001	1.142033e-001 
65 K+:	1.000000e-003	-3.245977e+000	-2.459780e-001	-2.459767e-001 
271 H2:	1.078075e-010	-9.967351e+000	0.000000e+000	0.000000e+000 
286 KOH:	4.412524e-019	0.000000e+000	0.000000e+000	0.000000e+000 
501 Cl-:	3.000000e+000	5.912545e-001	1.141320e-001	1.141333e-001 
531 NO3-:	1.000000e-003	-3.035977e+000	-3.597800e-002	-3.597674e-002 
535 OH-:	3.952845e-015	0.000000e+000	-2.457780e-001	-2.457767e-001 
0 Al(OH)2+:	0.000000e+000	0.000000e+000	-2.458680e-001	0.000000e+000 
43 H+:	3.000000e+000	5.913233e-001	1.142020e-001	1.142020e-001 
65 K+:	1.000000e-003	-3.245978e+000	-2.459780e-001	-2.459780e-001 
271 H2:	1.078075e-010	-9.967351e+000	0.000000e+000	0.000000e+000 
286 KOH:	4.412524e-019	0.000000e+000	0.000000e+000	0.000000e+000 
501 Cl-:	3.000000e+000	5.912533e-001	1.141320e-001	1.141320e-001 
531 NO3-:	1.000000e-003	-3.035978e+000	-3.597800e-002	-3.597800e-002 
535 OH-:	3.952845e-015	0.000000e+000	-2.457780e-001	-2.457780e-001 
0 Al(OH)2+:	0.000000e+000	0.000000e+000	-2.458680e-001	0.000000e+000 
43 H+:	3.000000e+000	5.913233e-001	1.142020e-001	1.142020e-001 
65 K+:	1.000000e-003	-3.245978e+000	-2.459780e-001	-2.459780e-001 
271 H2:	1.078069e-010	-9.967351e+000	0.000000e+000	0.000000e+000 
286 KOH:	4.369603e-019	0.000000e+000	0.000000e+000	0.000000e+000 
501 Cl-:	3.000000e+000	5.912533e-001	1.141320e-001	1.141320e-001 
531 NO3-:	1.000000e-003	-3.035978e+000	-3.597800e-002	-3.597800e-002 
535 OH-:	3.914419e-015	0.000000e+000	-2.457780e-001	-2.457780e-001 
0 Al(OH)2+:	0.000000e+000	0.000000e+000	-2.458680e-001	0.000000e+000 
43 H+:	3.000000e+000	5.913233e-001	1.142020e-001	1.142020e-001 
65 K+:	1.000000e-003	-3.245978e+000	-2.459780e-001	-2.459780e-001 
271 H2:	1.078069e-010	-9.967353e+000	0.000000e+000	0.000000e+000 
286 KOH:	4.369603e-019	0.000000e+000	0.000000e+000	0.000000e+000 
501 Cl-:	3.000000e+000	5.912533e-001	1.141320e-001	1.141320e-001 
531 NO3-:	1.000000e-003	-3.035978e+000	-3.597800e-002	-3.597800e-002 
535 OH-:	3.914419e-015	0.000000e+000	-2.457780e-001	-2.457780e-001 
0 Al(OH)2+:	0.000000e+000	0.000000e+000	-2.458719e-001	0.000000e+000 
43 H+:	3.000000e+000	5.913233e-001	1.142810e-001	1.142020e-001 
65 K+:	1.000000e-003	-3.245978e+000	-2.459819e-001	-2.459780e-001 
271 H2:	1.078069e-010	-9.967353e+000	0.000000e+000	0.000000e+000 
286 KOH:	4.369603e-019	0.000000e+000	0.000000e+000	0.000000e+000 
501 Cl-:	3.000691e+000	5.913533e-001	1.141281e-001	1.141320e-001 
531 NO3-:	1.000000e-003	-3.035978e+000	-3.598194e-002	-3.597800e-002 
535 OH-:	3.914419e-015	0.000000e+000	-2.457819e-001	-2.457780e-001 
0 Al(OH)2+:	0.000000e+000	0.000000e+000	-2.458719e-001	0.000000e+000 
43 H+:	3.000691e+000	5.914233e-001	1.141981e-001	1.142020e-001 
65 K+:	1.000000e-003	-3.245978e+000	-2.459819e-001	-2.459780e-001 
271 H2:	1.078565e-010	-9.967353e+000	0.000000e+000	0.000000e+000 
286 KOH:	4.368597e-019	0.000000e+000	0.000000e+000	0.000000e+000 
501 Cl-:	3.000000e+000	5.912533e-001	1.142110e-001	1.141320e-001 
531 NO3-:	1.000000e-003	-3.035978e+000	-3.593358e-002	-3.597800e-002 
535 OH-:	3.913518e-015	0.000000e+000	-2.457819e-001	-2.457780e-001 
0 Al(OH)2+:	0.000000e+000	0.000000e+000	-2.458680e-001	0.000000e+000 
43 H+:	3.000000e+000	5.913233e-001	1.142020e-001	1.142020e-001 
65 K+:	1.000230e-003	-3.245878e+000	-2.459780e-001	-2.459780e-001 
271 H2:	1.078069e-010	-9.967153e+000	0.000000e+000	0.000000e+000 
286 KOH:	4.370610e-019	0.000000e+000	0.000000e+000	0.000000e+000 
501 Cl-:	3.000000e+000	5.912533e-001	1.141320e-001	1.141320e-001 
531 NO3-:	1.000000e-003	-3.035978e+000	-3.597803e-002	-3.597800e-002 
535 OH-:	3.914419e-015	0.000000e+000	-2.457780e-001	-2.457780e-001 
0 Al(OH)2+:	0.000000e+000	0.000000e+000	-2.458680e-001	0.000000e+000 
43 H+:	3.000000e+000	5.913233e-001	1.142020e-001	1.142020e-001 
65 K+:	1.000000e-003	-3.245978e+000	-2.459780e-001	-2.459780e-001 
271 H2:	1.078069e-010	-9.967353e+000	0.000000e+000	0.000000e+000 
286 KOH:	4.369603e-019	0.000000e+000	0.000000e+000	0.000000e+000 
501 Cl-:	3.000000e+000	5.912533e-001	1.141320e-001	1.141320e-001 
531 NO3-:	1.000230e-003	-3.035878e+000	-3.597800e-002	-3.597800e-002 
535 OH-:	3.914419e-015	0.000000e+000	-2.457780e-001	-2.457780e-001 
0 Al(OH)2+:	0.000000e+000	0.000000e+000	-2.458680e-001	0.000000e+000 
43 H+:	3.000000e+000	5.913233e-001	1.142020e-001	1.142020e-001 
65 K+:	1.000000e-003	-3.245978e+000	-2.459780e-001	-2.459780e-001 
271 H2:	1.078069e-010	-9.967353e+000	0.000000e+000	0.000000e+000 
286 KOH:	4.370610e-019	0.000000e+000	0.000000e+000	0.000000e+000 
501 Cl-:	3.000000e+000	5.912533e-001	1.141320e-001	1.141320e-001 
531 NO3-:	1.000000e-003	-3.035978e+000	-3.597800e-002	-3.597800e-002 
535 OH-:	3.915320e-015	0.000000e+000	-2.457780e-001	-2.457780e-001 
0 Al(OH)2+:	0.000000e+000	0.000000e+000	-2.458641e-001	0.000000e+000 
43 H+:	3.000000e+000	5.913233e-001	1.141230e-001	1.142020e-001 
65 K+:	1.000000e-003	-3.245978e+000	-2.459741e-001	-2.459780e-001 
271 H2:	1.078069e-010	-9.967353e+000	0.000000e+000	0.000000e+000 
286 KOH:	4.369603e-019	0.000000e+000	0.000000e+000	0.000000e+000 
501 Cl-:	2.999309e+000	5.912533e-001	1.141359e-001	1.142320e-001 
531 NO3-:	1.000000e-003	-3.035978e+000	-3.597407e-002	-3.597800e-002 
535 OH-:	3.914419e-015	0.000000e+000	-2.457741e-001	-2.457780e-001 
0 Al(OH)2+:	0.000000e+000	0.000000e+000	-2.458641e-001	0.000000e+000 
43 H+:	2.999309e+000	5.913233e-001	1.142059e-001	1.143020e-001 
65 K+:	1.000000e-003	-3.245978e+000	-2.459741e-001	-2.459780e-001 
271 H2:	1.078069e-010	-9.967353e+000	0.000000e+000	0.000000e+000 
286 KOH:	4.369603e-019	0.000000e+000	0.000000e+000	0.000000e+000 
501 Cl-:	3.000000e+000	5.912533e-001	1.140530e-001	1.141320e-001 
531 NO3-:	1.000000e-003	-3.035978e+000	-3.602242e-002	-3.597800e-002 
535 OH-:	3.914419e-015	0.000000e+000	-2.457741e-001	-2.457780e-001 
0 Al(OH)2+:	0.000000e+000	0.000000e+000	-2.458680e-001	0.000000e+000 
43 H+:	3.000000e+000	5.913233e-001	1.142020e-001	1.142020e-001 
65 K+:	1.000000e-003	-3.245978e+000	-2.459780e-001	-2.459780e-001 
271 H2:	1.077821e-010	-9.967253e+000	0.000000e+000	1.000000e-004 
286 KOH:	4.369603e-019	0.000000e+000	0.000000e+000	0.000000e+000 
501 Cl-:	3.000000e+000	5.912533e-001	1.141320e-001	1.141320e-001 
531 NO3-:	1.000000e-003	-3.035978e+000	-3.597800e-002	-3.597800e-002 
535 OH-:	3.914419e-015	0.000000e+000	-2.457780e-001	-2.457780e-001 
0 Al(OH)2+:	0.000000e+000	0.000000e+000	-2.458680e-001	0.000000e+000 
43 H+:	3.000000e+000	5.913233e-001	1.142020e-001	1.142020e-001 
65 K+:	1.000000e-003	-3.245978e+000	-2.459780e-001	-2.459780e-001 
271 H2:	1.078069e-010	-9.967453e+000	0.000000e+000	0.000000e+000 
286 KOH:	4.369603e-019	0.000000e+000	0.000000e+000	0.000000e+000 
501 Cl-:	3.000000e+000	5.912533e-001	1.141320e-001	1.141320e-001 
531 NO3-:	1.000000e-003	-3.035978e+000	-3.597800e-002	-3.597800e-002 
535 OH-:	3.914419e-015	0.000000e+000	-2.457780e-001	-2.457780e-001 
0 Al(OH)2+:	0.000000e+000	0.000000e+000	-2.458680e-001	0.000000e+000 
43 H+:	3.000000e+000	5.913233e-001	1.142020e-001	1.142020e-001 
65 K+:	9.997698e-004	-3.245978e+000	-2.459780e-001	-2.458780e-001 
271 H2:	1.078069e-010	-9.967353e+000	0.000000e+000	0.000000e+000 
286 KOH:	4.369603e-019	0.000000e+000	0.000000e+000	0.000000e+000 
501 Cl-:	3.000000e+000	5.912533e-001	1.141320e-001	1.141320e-001 
531 NO3-:	1.000000e-003	-3.035978e+000	-3.597798e-002	-3.597800e-002 
535 OH-:	3.914419e-015	0.000000e+000	-2.457780e-001	-2.457780e-001 
0 Al(OH)2+:	0.000000e+000	0.000000e+000	-2.458680e-001	0.000000e+000 
43 H+:	3.000000e+000	5.913233e-001	1.142020e-001	1.142020e-001 
65 K+:	1.000000e-003	-3.245978e+000	-2.459780e-001	-2.459780e-001 
271 H2:	1.078069e-010	-9.967353e+000	0.000000e+000	0.000000e+000 
286 KOH:	4.368597e-019	0.000000e+000	0.000000e+000	1.000000e-004 
501 Cl-:	3.000000e+000	5.912533e-001	1.141320e-001	1.141320e-001 
531 NO3-:	1.000000e-003	-3.035978e+000	-3.597800e-002	-3.597800e-002 
535 OH-:	3.914419e-015	0.000000e+000	-2.457780e-001	-2.457780e-001 
0 Al(OH)2+:	0.000000e+000	0.000000e+000	-2.458680e-001	0.000000e+000 
43 H+:	3.000000e+000	5.913233e-001	1.142020e-001	1.142020e-001 
65 K+:	1.000000e-003	-3.245978e+000	-2.459780e-001	-2.459780e-001 
271 H2:	1.078069e-010	-9.967353e+000	0.000000e+000	0.000000e+000 
286 KOH:	4.369603e-019	0.000000e+000	0.000000e+000	0.000000e+000 
501 Cl-:	3.000000e+000	5.912533e-001	1.141320e-001	1.141320e-001 
531 NO3-:	9.997698e-004	-3.035978e+000	-3.597800e-002	-3.587800e-002 
535 OH-:	3.914419e-015	0.000000e+000	-2.457780e-001	-2.457780e-001 
0 Al(OH)2+:	0.000000e+000	0.000000e+000	-2.458680e-001	0.000000e+000 
43 H+:	3.000000e+000	5.913233e-001	1.142020e-001	1.142020e-001 
65 K+:	1.000000e-003	-3.245978e+000	-2.459780e-001	-2.459780e-001 
271 H2:	1.078069e-010	-9.967353e+000	0.000000e+000	0.000000e+000 
286 KOH:	4.369603e-019	0.000000e+000	0.000000e+000	0.000000e+000 
501 Cl-:	3.000000e+000	5.912533e-001	1.141320e-001	1.141320e-001 
531 NO3-:	1.000000e-003	-3.035978e+000	-3.597800e-002	-3.597800e-002 
535 OH-:	3.914419e-015	0.000000e+000	-2.457780e-001	-2.457780e-001 
0 Al(OH)2+:	0.000000e+000	0.000000e+000	-2.458680e-001	0.000000e+000 
43 H+:	3.000000e+000	5.913233e-001	1.142020e-001	1.142020e-001 
65 K+:	1.000000e-003	-3.245978e+000	-2.459780e-001	-2.459780e-001 
271 H2:	1.078069e-010	-9.967353e+000	0.000000e+000	0.000000e+000 
286 KOH:	4.369603e-019	0.000000e+000	0.000000e+000	0.000000e+000 
501 Cl-:	3.000000e+000	5.912533e-001	1.141320e-001	1.141320e-001 
531 NO3-:	1.000000e-003	-3.035978e+000	-3.597800e-002	-3.597800e-002 
535 OH-:	3.913518e-015	0.000000e+000	-2.457780e-001	-2.456780e-001 
0 Al(OH)2+:	0.000000e+000	0.000000e+000	-2.458680e-001	0.000000e+000 
43 H+:	3.000000e+000	5.913233e-001	1.142020e-001	1.142020e-001 
65 K+:	1.000000e-003	-3.245978e+000	-2.459780e-001	-2.459780e-001 
271 H2:	1.078069e-010	-9.967353e+000	0.000000e+000	0.000000e+000 
286 KOH:	4.369603e-019	0.000000e+000	0.000000e+000	0.000000e+000 
501 Cl-:	3.000000e+000	5.912533e-001	1.141320e-001	1.141320e-001 
531 NO3-:	1.000000e-003	-3.035978e+000	-3.597800e-002	-3.597800e-002 
535 OH-:	3.914419e-015	0.000000e+000	-2.457780e-001	-2.457780e-001 
0 Al(OH)2+:	0.000000e+000	0.000000e+000	-2.458680e-001	0.000000e+000 
43 H+:	3.000000e+000	5.913233e-001	1.142020e-001	1.142020e-001 
65 K+:	1.000000e-003	-3.245978e+000	-2.459780e-001	-2.459780e-001 
271 H2:	1.078069e-010	-9.967353e+000	0.000000e+000	0.000000e+000 
286 KOH:	4.369603e-019	0.000000e+000	0.000000e+000	0.000000e+000 
501 Cl-:	3.000000e+000	5.912533e-001	1.141320e-001	1.141320e-001 
531 NO3-:	1.000000e-003	-3.035978e+000	-3.597800e-002	-3.597800e-002 
535 OH-:	3.914419e-015	0.000000e+000	-2.457780e-001	-2.457780e-001 
0 Al(OH)2+:	0.000000e+000	0.000000e+000	-2.458680e-001	0.000000e+000 
43 H+:	3.000000e+000	5.913233e-001	1.142020e-001	1.142020e-001 
65 K+:	1.000000e-003	-3.245978e+000	-2.459780e-001	-2.459780e-001 
271 H2:	1.078069e-010	-9.967353e+000	0.000000e+000	0.000000e+000 
286 KOH:	4.369388e-019	0.000000e+000	0.000000e+000	0.000000e+000 
501 Cl-:	3.000000e+000	5.912533e-001	1.141320e-001	1.141320e-001 
531 NO3-:	1.000000e-003	-3.035978e+000	-3.597800e-002	-3.597800e-002 
535 OH-:	3.914226e-015	0.000000e+000	-2.457780e-001	-2.457780e-001 
-----------------------------Solution composition------------------------------

	Elements           Molality       Moles

	Cl               3.000e+000  3.000e+000
	K                1.000e-003  1.000e-003
	N(5)             1.000e-003  1.000e-003

----------------------------Description of solution----------------------------

                                       pH  =  -0.591      Charge balance
                                       pe  =   4.000    
       Specific Conductance (uS/cm, 25 oC) = 2014970
                          Density (g/cm3)  =   1.04834
                        Activity of water  =   0.866
                           Ionic strength  =  3.001e+000
                       Mass of water (kg)  =  1.000e+000
                 Total alkalinity (eq/kg)  = -3.000e+000
                    Total carbon (mol/kg)  =  0.000e+000
                       Total CO2 (mol/kg)  =  0.000e+000
                      Temperature (deg C)  =  25.000
                  Electrical balance (eq)  = -1.251e-015
 Percent error, 100*(Cat-|An|)/(Cat+|An|)  =  -0.00
                               Iterations  =  11
                         Gamma iterations  =   4
                      Osmotic coefficient  =   1.32621
                         Density of water  =   0.99706
                                  Total H  = 1.140124e+002
                                  Total O  = 5.550922e+001

----------------------------Distribution of species----------------------------

                                                   Log       Log         Log 
   Species                 Molality    Activity  Molality  Activity     Gamma

   H+                    3.000e+000  3.902e+000     0.477     0.591     0.114
   OH-                   3.914e-015  2.223e-015   -14.407   -14.653    -0.246
   H2O                   5.551e+001  8.664e-001     1.744    -0.062     0.000
Cl              3.000e+000
   Cl-                   3.000e+000  3.902e+000     0.477     0.591     0.114
H(0)            2.156e-010
   H2                    1.078e-010  1.078e-010    -9.967    -9.967     0.000
K               1.000e-003
   K+                    1.000e-003  5.676e-004    -3.000    -3.246    -0.246
   KOH                   4.369e-019  4.369e-019   -18.360   -18.360     0.000
N(5)            1.000e-003
   NO3-                  1.000e-003  9.205e-004    -3.000    -3.036    -0.036
O(0)            0.000e+000
   O2                    0.000e+000  0.000e+000   -72.570   -72.570     0.000

------------------------------Saturation indices-------------------------------

	Phase               SI log IAP  log KT

	H2(g)            -6.82   -9.97   -3.15  H2
	H2O(g)           -1.57   -0.06    1.51  H2O
	O2(g)           -69.68  -72.57   -2.89  O2

------------------
End of simulation.
------------------

------------------------------------
Reading input data for simulation 2.
------------------------------------

-----------
End of run.
-----------

No memory leaks
