   Input file: user_print
  Output file: user_print.out
Database file: ../database/phreeqc.dat

------------------
Reading data base.
------------------

	SOLUTION_MASTER_SPECIES
	SOLUTION_SPECIES
	PHASES
	EXCHANGE_MASTER_SPECIES
	EXCHANGE_SPECIES
	SURFACE_MASTER_SPECIES
	SURFACE_SPECIES
	RATES
	END
------------------------------------
Reading input data for simulation 1.
------------------------------------

	DATABASE ../database/phreeqc.dat
	USER_PRINT
		start
	10 print "pH   ", -la("H+")
	20 print "pe   ", -la("e-")
	30 print "Alk  ", alk
	40 print "mu   ", mu
	50 print "rxn  ", rxn
		end
	solution 1
	END
-------------------------------------------
Beginning of initial solution calculations.
-------------------------------------------

Initial solution 1.	

----------------------------------User print-----------------------------------

pH      6.9999e+00 
pe               4 
Alk     1.0821e-10 
mu      1.0011e-07 
rxn              0 

-----------------------------Solution composition------------------------------

	Elements           Molality       Moles

	Pure water     

----------------------------Description of solution----------------------------

                                       pH  =   7.000    
                                       pe  =   4.000    
                        Activity of water  =   1.000
                           Ionic strength  =   1.001e-07
                       Mass of water (kg)  =   1.000e+00
                 Total alkalinity (eq/kg)  =   1.082e-10
                    Total carbon (mol/kg)  =   0.000e+00
                       Total CO2 (mol/kg)  =   0.000e+00
                      Temperature (deg C)  =  25.000
                  Electrical balance (eq)  =  -1.082e-10
 Percent error, 100*(Cat-|An|)/(Cat+|An|)  =  -0.05
                               Iterations  =   0
                                  Total H  = 1.110124e+02
                                  Total O  = 5.550622e+01

----------------------------Distribution of species----------------------------

	                                           Log       Log         Log 
	Species            Molality    Activity  Molality  Activity     Gamma

	OH-               1.002e-07   1.001e-07    -6.999    -6.999    -0.000
	H+                1.001e-07   1.000e-07    -7.000    -7.000    -0.000
	H2O               5.551e+01   1.000e+00     1.744     0.000     0.000
H(0)             1.416e-25
	H2                7.079e-26   7.079e-26   -25.150   -25.150     0.000
O(0)             0.000e+00
	O2                0.000e+00   0.000e+00   -42.080   -42.080     0.000

------------------------------Saturation indices-------------------------------

	Phase               SI log IAP  log KT

	H2(g)           -22.00  -25.15   -3.15  H2
	H2O(g)           -1.51    0.00    1.51  H2O
	O2(g)           -39.19  -42.08   -2.89  O2

------------------
End of simulation.
------------------

------------------------------------
Reading input data for simulation 2.
------------------------------------

	INCREMENTAL_REACTIONS 
	use solution 1
	reaction
		NaCl
		0.25 0.5 0.75 1.0 
	END
-----------------------------------------
Beginning of batch-reaction calculations.
-----------------------------------------

Reaction step 1.

Using solution 1.	
Using reaction 1.	

Reaction 1.	Irreversible reaction defined in simulation 2.

	  2.500e-01 moles of the following reaction have been added:

	                 Relative
	Reactant            moles

	NaCl                 1.00

	                 Relative
	Element             moles
	Cl                   1.00
	Na                   1.00

----------------------------------User print-----------------------------------

pH      6.9559e+00 
pe      1.1207e+01 
Alk     1.0821e-10 
mu      2.5000e-01 
rxn     2.5000e-01 

-----------------------------Solution composition------------------------------

	Elements           Molality       Moles

	Cl                2.500e-01   2.500e-01
	Na                2.500e-01   2.500e-01

----------------------------Description of solution----------------------------

                                       pH  =   6.956      Charge balance
                                       pe  =  11.207      Adjusted to redox equilibrium
                        Activity of water  =   0.991
                           Ionic strength  =   2.500e-01
                       Mass of water (kg)  =   1.000e-00
                 Total alkalinity (eq/kg)  =   1.082e-10
                    Total carbon (mol/kg)  =   0.000e+00
                       Total CO2 (mol/kg)  =   0.000e+00
                      Temperature (deg C)  =  25.000
                  Electrical balance (eq)  =  -1.084e-10
 Percent error, 100*(Cat-|An|)/(Cat+|An|)  =  -0.00
                               Iterations  =   9
                                  Total H  = 1.110124e+02
                                  Total O  = 5.550622e+01

----------------------------Distribution of species----------------------------

	                                           Log       Log         Log 
	Species            Molality    Activity  Molality  Activity     Gamma

	H+                1.403e-07   1.107e-07    -6.853    -6.956    -0.103
	OH-               1.301e-07   8.967e-08    -6.886    -7.047    -0.162
	H2O               5.551e+01   9.915e-01     1.744    -0.004     0.000
Cl               2.500e-01
	Cl-               2.500e-01   1.738e-01    -0.602    -0.760    -0.158
H(0)             6.302e-40
	H2                3.151e-40   3.338e-40   -39.502   -39.477     0.025
Na               2.500e-01
	Na+               2.500e-01   1.832e-01    -0.602    -0.737    -0.135
	NaOH              1.024e-08   1.084e-08    -7.990    -7.965     0.025
O(0)             6.947e-14
	O2                3.473e-14   3.679e-14   -13.459   -13.434     0.025

------------------------------Saturation indices-------------------------------

	Phase               SI log IAP  log KT

	H2(g)           -36.33  -39.48   -3.15  H2
	H2O(g)           -1.51   -0.00    1.51  H2O
	Halite           -3.08   -1.50    1.58  NaCl
	O2(g)           -10.54  -13.43   -2.89  O2

Reaction step 2.

Using solution 1.	
Using reaction 1.	

Reaction 1.	Irreversible reaction defined in simulation 2.

	  5.000e-01 moles of the following reaction have been added:

	                 Relative
	Reactant            moles

	NaCl                 1.00

	                 Relative
	Element             moles
	Cl                   1.00
	Na                   1.00

----------------------------------User print-----------------------------------

pH      6.9215e+00 
pe      1.1263e+01 
Alk     1.0821e-10 
mu      7.5000e-01 
rxn     5.0000e-01 

-----------------------------Solution composition------------------------------

	Elements           Molality       Moles

	Cl                7.500e-01   7.500e-01
	Na                7.500e-01   7.500e-01

----------------------------Description of solution----------------------------

                                       pH  =   6.922      Charge balance
                                       pe  =  11.263      Adjusted to redox equilibrium
                        Activity of water  =   0.974
                           Ionic strength  =   7.500e-01
                       Mass of water (kg)  =   1.000e-00
                 Total alkalinity (eq/kg)  =   1.082e-10
                    Total carbon (mol/kg)  =   0.000e+00
                       Total CO2 (mol/kg)  =   0.000e+00
                      Temperature (deg C)  =  25.000
                  Electrical balance (eq)  =  -1.084e-10
 Percent error, 100*(Cat-|An|)/(Cat+|An|)  =  -0.00
                               Iterations  =   6
                                  Total H  = 1.110124e+02
                                  Total O  = 5.550622e+01

----------------------------Distribution of species----------------------------

	                                           Log       Log         Log 
	Species            Molality    Activity  Molality  Activity     Gamma

	H+                1.594e-07   1.198e-07    -6.798    -6.922    -0.124
	OH-               1.355e-07   8.143e-08    -6.868    -7.089    -0.221
	H2O               5.551e+01   9.745e-01     1.744    -0.011     0.000
Cl               7.500e-01
	Cl-               7.500e-01   4.626e-01    -0.125    -0.335    -0.210
H(0)             5.094e-40
	H2                2.547e-40   3.027e-40   -39.594   -39.519     0.075
Na               7.500e-01
	Na+               7.500e-01   5.308e-01    -0.125    -0.275    -0.150
	NaOH              2.400e-08   2.853e-08    -7.620    -7.545     0.075
O(0)             7.271e-14
	O2                3.635e-14   4.321e-14   -13.439   -13.364     0.075

------------------------------Saturation indices-------------------------------

	Phase               SI log IAP  log KT

	H2(g)           -36.37  -39.52   -3.15  H2
	H2O(g)           -1.52   -0.01    1.51  H2O
	Halite           -2.19   -0.61    1.58  NaCl
	O2(g)           -10.47  -13.36   -2.89  O2

Reaction step 3.

Using solution 1.	
Using reaction 1.	

Reaction 1.	Irreversible reaction defined in simulation 2.

	  7.500e-01 moles of the following reaction have been added:

	                 Relative
	Reactant            moles

	NaCl                 1.00

	                 Relative
	Element             moles
	Cl                   1.00
	Na                   1.00

----------------------------------User print-----------------------------------

pH      6.8942e+00 
pe      1.1303e+01 
Alk     1.0821e-10 
mu      1.5000e+00 
rxn     7.5000e-01 

-----------------------------Solution composition------------------------------

	Elements           Molality       Moles

	Cl                1.500e+00   1.500e+00
	Na                1.500e+00   1.500e+00

----------------------------Description of solution----------------------------

                                       pH  =   6.894      Charge balance
                                       pe  =  11.303      Adjusted to redox equilibrium
                        Activity of water  =   0.949
                           Ionic strength  =   1.500e+00
                       Mass of water (kg)  =   1.000e-00
                 Total alkalinity (eq/kg)  =   1.082e-10
                    Total carbon (mol/kg)  =   0.000e+00
                       Total CO2 (mol/kg)  =   0.000e+00
                      Temperature (deg C)  =  25.000
                  Electrical balance (eq)  =  -1.084e-10
 Percent error, 100*(Cat-|An|)/(Cat+|An|)  =  -0.00
                               Iterations  =   5
                                  Total H  = 1.110124e+02
                                  Total O  = 5.550622e+01

----------------------------Distribution of species----------------------------

	                                           Log       Log         Log 
	Species            Molality    Activity  Molality  Activity     Gamma

	H+                1.741e-07   1.276e-07    -6.759    -6.894    -0.135
	OH-               1.352e-07   7.447e-08    -6.869    -7.128    -0.259
	H2O               5.551e+01   9.490e-01     1.744    -0.023     0.000
Cl               1.500e+00
	Cl-               1.500e+00   8.699e-01     0.176    -0.061    -0.237
H(0)             4.034e-40
	H2                2.017e-40   2.849e-40   -39.695   -39.545     0.150
Na               1.500e+00
	Na+               1.500e+00   1.121e+00     0.176     0.049    -0.127
	NaOH              3.899e-08   5.507e-08    -7.409    -7.259     0.150
O(0)             6.550e-14
	O2                3.275e-14   4.626e-14   -13.485   -13.335     0.150

------------------------------Saturation indices-------------------------------

	Phase               SI log IAP  log KT

	H2(g)           -36.40  -39.55   -3.15  H2
	H2O(g)           -1.53   -0.02    1.51  H2O
	Halite           -1.59   -0.01    1.58  NaCl
	O2(g)           -10.44  -13.33   -2.89  O2

Reaction step 4.

Using solution 1.	
Using reaction 1.	

Reaction 1.	Irreversible reaction defined in simulation 2.

	  1.000e+00 moles of the following reaction have been added:

	                 Relative
	Reactant            moles

	NaCl                 1.00

	                 Relative
	Element             moles
	Cl                   1.00
	Na                   1.00

----------------------------------User print-----------------------------------

pH      6.8734e+00 
pe      1.1357e+01 
Alk     1.0821e-10 
mu      2.5000e+00 
rxn              1 

-----------------------------Solution composition------------------------------

	Elements           Molality       Moles

	Cl                2.500e+00   2.500e+00
	Na                2.500e+00   2.500e+00

----------------------------Description of solution----------------------------

                                       pH  =   6.873      Charge balance
                                       pe  =  11.357      Adjusted to redox equilibrium
                        Activity of water  =   0.915
                           Ionic strength  =   2.500e+00
                       Mass of water (kg)  =   1.000e-00
                 Total alkalinity (eq/kg)  =   1.082e-10
                    Total carbon (mol/kg)  =   0.000e+00
                       Total CO2 (mol/kg)  =   0.000e+00
                      Temperature (deg C)  =  25.000
                  Electrical balance (eq)  =   1.888e-10
 Percent error, 100*(Cat-|An|)/(Cat+|An|)  =   0.00
                               Iterations  =   4
                                  Total H  = 1.110124e+02
                                  Total O  = 5.550622e+01

----------------------------Distribution of species----------------------------

	                                           Log       Log         Log 
	Species            Molality    Activity  Molality  Activity     Gamma

	H+                1.856e-07   1.338e-07    -6.731    -6.873    -0.142
	OH-               1.322e-07   6.844e-08    -6.879    -7.165    -0.286
	H2O               5.551e+01   9.150e-01     1.744    -0.039     0.000
Cl               2.500e+00
	Cl-               2.500e+00   1.411e+00     0.398     0.150    -0.248
H(0)             2.756e-40
	H2                1.378e-40   2.451e-40   -39.861   -39.611     0.250
Na               2.500e+00
	Na+               2.500e+00   2.107e+00     0.398     0.324    -0.074
	NaOH              5.352e-08   9.517e-08    -7.271    -7.021     0.250
O(0)             6.537e-14
	O2                3.268e-14   5.812e-14   -13.486   -13.236     0.250

------------------------------Saturation indices-------------------------------

	Phase               SI log IAP  log KT

	H2(g)           -36.46  -39.61   -3.15  H2
	H2O(g)           -1.55   -0.04    1.51  H2O
	Halite           -1.11    0.47    1.58  NaCl
	O2(g)           -10.34  -13.24   -2.89  O2

------------------
End of simulation.
------------------

------------------------------------
Reading input data for simulation 3.
------------------------------------

	solution 1
	END
-------------------------------------------
Beginning of initial solution calculations.
-------------------------------------------

Initial solution 1.	

----------------------------------User print-----------------------------------

pH      6.9999e+00 
pe               4 
Alk     1.0821e-10 
mu      1.0011e-07 
rxn              0 

-----------------------------Solution composition------------------------------

	Elements           Molality       Moles

	Pure water     

----------------------------Description of solution----------------------------

                                       pH  =   7.000    
                                       pe  =   4.000    
                        Activity of water  =   1.000
                           Ionic strength  =   1.001e-07
                       Mass of water (kg)  =   1.000e+00
                 Total alkalinity (eq/kg)  =   1.082e-10
                    Total carbon (mol/kg)  =   0.000e+00
                       Total CO2 (mol/kg)  =   0.000e+00
                      Temperature (deg C)  =  25.000
                  Electrical balance (eq)  =  -1.082e-10
 Percent error, 100*(Cat-|An|)/(Cat+|An|)  =  -0.05
                               Iterations  =   0
                                  Total H  = 1.110124e+02
                                  Total O  = 5.550622e+01

----------------------------Distribution of species----------------------------

	                                           Log       Log         Log 
	Species            Molality    Activity  Molality  Activity     Gamma

	OH-               1.002e-07   1.001e-07    -6.999    -6.999    -0.000
	H+                1.001e-07   1.000e-07    -7.000    -7.000    -0.000
	H2O               5.551e+01   1.000e+00     1.744     0.000     0.000
H(0)             1.416e-25
	H2                7.079e-26   7.079e-26   -25.150   -25.150     0.000
O(0)             0.000e+00
	O2                0.000e+00   0.000e+00   -42.080   -42.080     0.000

------------------------------Saturation indices-------------------------------

	Phase               SI log IAP  log KT

	H2(g)           -22.00  -25.15   -3.15  H2
	H2O(g)           -1.51    0.00    1.51  H2O
	O2(g)           -39.19  -42.08   -2.89  O2

------------------
End of simulation.
------------------

------------------------------------
Reading input data for simulation 4.
------------------------------------

-----------
End of run.
-----------

No memory leaks
